data_image0
_chemical_formula_structural       C3200Au600
_chemical_formula_sum              "C3200 Au600"
_cell_length_a       35.7
_cell_length_b       35.5612
_cell_length_c       35.7
_cell_angle_alpha    90
_cell_angle_beta     90
_cell_angle_gamma    90

_space_group_name_H-M_alt    "P 1"
_space_group_IT_number       1

loop_
  _space_group_symop_operation_xyz
  'x, y, z'

loop_
  _atom_site_type_symbol
  _atom_site_label
  _atom_site_symmetry_multiplicity
  _atom_site_fract_x
  _atom_site_fract_y
  _atom_site_fract_z
  _atom_site_occupancy
  C   C1        1.0  0.98810  0.44992  0.99157  1.0000
  C   C2        1.0  0.02788  0.07862  0.02636  1.0000
  C   C3        1.0  0.00909  0.11569  0.05512  1.0000
  C   C4        1.0  0.02014  0.12333  0.06621  1.0000
  C   C5        1.0  0.04629  0.45721  0.03951  1.0000
  C   C6        1.0  0.06277  0.08462  0.05503  1.0000
  C   C7        1.0  0.04809  0.11101  0.98937  1.0000
  C   C8        1.0  0.06300  0.12327  0.03199  1.0000
  C   C9        1.0  0.99860  0.43753  0.09543  1.0000
  C   C10       1.0  0.03593  0.09196  0.13179  1.0000
  C   C11       1.0  0.99743  0.08643  0.15183  1.0000
  C   C12       1.0  0.02310  0.13233  0.19163  1.0000
  C   C13       1.0  0.05198  0.05920  0.15653  1.0000
  C   C14       1.0  0.07223  0.07411  0.16705  1.0000
  C   C15       1.0  0.05827  0.11187  0.09472  1.0000
  C   C16       1.0  0.08743  0.13350  0.11055  1.0000
  C   C17       1.0  0.00653  0.45626  0.18567  1.0000
  C   C18       1.0  0.03056  0.07757  0.22077  1.0000
  C   C19       1.0  0.00636  0.08267  0.23623  1.0000
  C   C20       1.0  0.02042  0.13420  0.26783  1.0000
  C   C21       1.0  0.03925  0.44638  0.24874  1.0000
  C   C22       1.0  0.08228  0.06561  0.25256  1.0000
  C   C23       1.0  0.04679  0.10227  0.19020  1.0000
  C   C24       1.0  0.08160  0.14021  0.21892  1.0000
  C   C25       1.0  0.99629  0.06238  0.29537  1.0000
  C   C26       1.0  0.00987  0.08057  0.31525  1.0000
  C   C27       1.0  0.00351  0.10093  0.34796  1.0000
  C   C28       1.0  0.03060  0.13015  0.36816  1.0000
  C   C29       1.0  0.03915  0.07484  0.36193  1.0000
  C   C30       1.0  0.05878  0.06991  0.38130  1.0000
  C   C31       1.0  0.04365  0.10657  0.30878  1.0000
  C   C32       1.0  0.07639  0.13010  0.31989  1.0000
  C   C33       1.0  0.99907  0.06040  0.41871  1.0000
  C   C34       1.0  0.03649  0.07915  0.43488  1.0000
  C   C35       1.0  0.00126  0.09037  0.44885  1.0000
  C   C36       1.0  0.03573  0.12505  0.48509  1.0000
  C   C37       1.0  0.04669  0.05650  0.43715  1.0000
  C   C38       1.0  0.09733  0.08622  0.48588  1.0000
  C   C39       1.0  0.04512  0.09056  0.41307  1.0000
  C   C40       1.0  0.06732  0.14939  0.42315  1.0000
  C   C41       1.0  0.01752  0.44988  0.48098  1.0000
  C   C42       1.0  0.03253  0.08057  0.52497  1.0000
  C   C43       1.0  0.01131  0.09685  0.53604  1.0000
  C   C44       1.0  0.01240  0.11329  0.55550  1.0000
  C   C45       1.0  0.03614  0.44723  0.54505  1.0000
  C   C46       1.0  0.06190  0.07969  0.58289  1.0000
  C   C47       1.0  0.04729  0.11051  0.48968  1.0000
  C   C48       1.0  0.07756  0.13588  0.51725  1.0000
  C   C49       1.0  0.98258  0.45470  0.59873  1.0000
  C   C50       1.0  0.03904  0.07543  0.64103  1.0000
  C   C51       1.0  0.97260  0.10135  0.64292  1.0000
  C   C52       1.0  0.01902  0.12385  0.67249  1.0000
  C   C53       1.0  0.06552  0.45409  0.66066  1.0000
  C   C54       1.0  0.07191  0.08038  0.64757  1.0000
  C   C55       1.0  0.04883  0.11078  0.58576  1.0000
  C   C56       1.0  0.06637  0.12022  0.64544  1.0000
  C   C57       1.0  0.98739  0.44788  0.66892  1.0000
  C   C58       1.0  0.00599  0.08129  0.70916  1.0000
  C   C59       1.0  0.96836  0.10101  0.74880  1.0000
  C   C60       1.0  0.02554  0.13312  0.76621  1.0000
  C   C61       1.0  0.07749  0.44950  0.75238  1.0000
  C   C62       1.0  0.05916  0.07233  0.75643  1.0000
  C   C63       1.0  0.04996  0.09981  0.68701  1.0000
  C   C64       1.0  0.05136  0.13508  0.73142  1.0000
  C   C65       1.0  0.00662  0.45458  0.80516  1.0000
  C   C66       1.0  0.03251  0.08460  0.83815  1.0000
  C   C67       1.0  0.99621  0.10658  0.83185  1.0000
  C   C68       1.0  0.04536  0.12161  0.87666  1.0000
  C   C69       1.0  0.05497  0.44737  0.84789  1.0000
  C   C70       1.0  0.08073  0.07873  0.87024  1.0000
  C   C71       1.0  0.04512  0.09734  0.79676  1.0000
  C   C72       1.0  0.07750  0.13499  0.83531  1.0000
  C   C73       1.0  0.99924  0.45100  0.90773  1.0000
  C   C74       1.0  0.02751  0.09083  0.92584  1.0000
  C   C75       1.0  0.00455  0.10949  0.95670  1.0000
  C   C76       1.0  0.01353  0.12932  0.97587  1.0000
  C   C77       1.0  0.06726  0.45597  0.95388  1.0000
  C   C78       1.0  0.07209  0.05820  0.98727  1.0000
  C   C79       1.0  0.05622  0.11876  0.88449  1.0000
  C   C80       1.0  0.07702  0.13238  0.90729  1.0000
  C   C81       1.0  0.00397  0.14909  0.00425  1.0000
  C   C82       1.0  0.00629  0.17126  0.01644  1.0000
  C   C83       1.0  0.98274  0.20639  0.06298  1.0000
  C   C84       1.0  0.02380  0.23765  0.08972  1.0000
  C   C85       1.0  0.05493  0.15163  0.02856  1.0000
  C   C86       1.0  0.07779  0.17722  0.06917  1.0000
  C   C87       1.0  0.05681  0.21172  0.98232  1.0000
  C   C88       1.0  0.07666  0.22749  0.03320  1.0000
  C   C89       1.0  0.99886  0.16561  0.09202  1.0000
  C   C90       1.0  0.01984  0.17497  0.12216  1.0000
  C   C91       1.0  0.99651  0.21865  0.13860  1.0000
  C   C92       1.0  0.02500  0.21847  0.15869  1.0000
  C   C93       1.0  0.04274  0.13952  0.15097  1.0000
  C   C94       1.0  0.06627  0.17507  0.17893  1.0000
  C   C95       1.0  0.06572  0.20020  0.07820  1.0000
  C   C96       1.0  0.06987  0.23095  0.13628  1.0000
  C   C97       1.0  0.99871  0.14630  0.20909  1.0000
  C   C98       1.0  0.03583  0.17891  0.22738  1.0000
  C   C99       1.0  0.00318  0.23389  0.24297  1.0000
  C   C100      1.0  0.02000  0.23027  0.28215  1.0000
  C   C101      1.0  0.04630  0.16160  0.25914  1.0000
  C   C102      1.0  0.09566  0.17959  0.27125  1.0000
  C   C103      1.0  0.04603  0.18648  0.18700  1.0000
  C   C104      1.0  0.07621  0.23313  0.25228  1.0000
  C   C105      1.0  0.01287  0.16451  0.31534  1.0000
  C   C106      1.0  0.01770  0.17523  0.31663  1.0000
  C   C107      1.0  0.99792  0.22954  0.34683  1.0000
  C   C108      1.0  0.01778  0.23200  0.38362  1.0000
  C   C109      1.0  0.05481  0.16548  0.33683  1.0000
  C   C110      1.0  0.06547  0.17896  0.37576  1.0000
  C   C111      1.0  0.06436  0.19295  0.30667  1.0000
  C   C112      1.0  0.07233  0.23828  0.31779  1.0000
  C   C113      1.0  0.98490  0.16912  0.40295  1.0000
  C   C114      1.0  0.00403  0.18902  0.41405  1.0000
  C   C115      1.0  0.99870  0.20644  0.43538  1.0000
  C   C116      1.0  0.03669  0.22606  0.49224  1.0000
  C   C117      1.0  0.05499  0.16193  0.45268  1.0000
  C   C118      1.0  0.09594  0.17050  0.46645  1.0000
  C   C119      1.0  0.04274  0.21901  0.41111  1.0000
  C   C120      1.0  0.07577  0.23462  0.40718  1.0000
  C   C121      1.0  0.01580  0.15408  0.50117  1.0000
  C   C122      1.0  0.02164  0.18863  0.52258  1.0000
  C   C123      1.0  0.00119  0.20766  0.54445  1.0000
  C   C124      1.0  0.01834  0.23606  0.57905  1.0000
  C   C125      1.0  0.05784  0.17220  0.53667  1.0000
  C   C126      1.0  0.05515  0.17727  0.58864  1.0000
  C   C127      1.0  0.04947  0.18709  0.51710  1.0000
  C   C128      1.0  0.08035  0.21570  0.51602  1.0000
  C   C129      1.0  0.00103  0.15057  0.59851  1.0000
  C   C130      1.0  0.03054  0.18172  0.63995  1.0000
  C   C131      1.0  0.99791  0.22287  0.64368  1.0000
  C   C132      1.0  0.01241  0.20922  0.66563  1.0000
  C   C133      1.0  0.05095  0.16691  0.61300  1.0000
  C   C134      1.0  0.07451  0.17114  0.68256  1.0000
  C   C135      1.0  0.04442  0.20998  0.61934  1.0000
  C   C136      1.0  0.07612  0.23000  0.63550  1.0000
  C   C137      1.0  0.00308  0.15436  0.68266  1.0000
  C   C138      1.0  0.02110  0.16363  0.72707  1.0000
  C   C139      1.0  0.00605  0.20734  0.76968  1.0000
  C   C140      1.0  0.01261  0.23617  0.77527  1.0000
  C   C141      1.0  0.03719  0.16183  0.75874  1.0000
  C   C142      1.0  0.08689  0.17974  0.78168  1.0000
  C   C143      1.0  0.04277  0.22268  0.71913  1.0000
  C   C144      1.0  0.07658  0.23425  0.71351  1.0000
  C   C145      1.0  0.00020  0.15259  0.80241  1.0000
  C   C146      1.0  0.00988  0.20076  0.82704  1.0000
  C   C147      1.0  0.01164  0.21214  0.84695  1.0000
  C   C148      1.0  0.04566  0.24396  0.85913  1.0000
  C   C149      1.0  0.04982  0.15416  0.84146  1.0000
  C   C150      1.0  0.09825  0.16863  0.89141  1.0000
  C   C151      1.0  0.03164  0.22162  0.79442  1.0000
  C   C152      1.0  0.05100  0.23493  0.83027  1.0000
  C   C153      1.0  0.99036  0.16839  0.88207  1.0000
  C   C154      1.0  0.03725  0.18819  0.94440  1.0000
  C   C155      1.0  0.99591  0.21648  0.94394  1.0000
  C   C156      1.0  0.03404  0.23479  0.98384  1.0000
  C   C157      1.0  0.03648  0.16213  0.95422  1.0000
  C   C158      1.0  0.09142  0.17831  0.97332  1.0000
  C   C159      1.0  0.05718  0.21274  0.87320  1.0000
  C   C160      1.0  0.07223  0.24139  0.92143  1.0000
  C   C161      1.0  0.98032  0.25345  0.99990  1.0000
  C   C162      1.0  0.01480  0.28309  0.01331  1.0000
  C   C163      1.0  0.99799  0.30812  0.06910  1.0000
  C   C164      1.0  0.02882  0.34602  0.07737  1.0000
  C   C165      1.0  0.03784  0.24456  0.05849  1.0000
  C   C166      1.0  0.05783  0.26491  0.08468  1.0000
  C   C167      1.0  0.04123  0.29477  0.01766  1.0000
  C   C168      1.0  0.06560  0.33880  0.02457  1.0000
  C   C169      1.0  0.00136  0.25739  0.11074  1.0000
  C   C170      1.0  0.04081  0.27196  0.14129  1.0000
  C   C171      1.0  0.99760  0.30526  0.15725  1.0000
  C   C172      1.0  0.01908  0.32224  0.19113  1.0000
  C   C173      1.0  0.04371  0.23408  0.11462  1.0000
  C   C174      1.0  0.07833  0.28036  0.19341  1.0000
  C   C175      1.0  0.03736  0.29401  0.10026  1.0000
  C   C176      1.0  0.08921  0.34736  0.12529  1.0000
  C   C177      1.0  0.99303  0.25838  0.21626  1.0000
  C   C178      1.0  0.02411  0.27725  0.22977  1.0000
  C   C179      1.0  0.00214  0.30840  0.27229  1.0000
  C   C180      1.0  0.03221  0.33359  0.27133  1.0000
  C   C181      1.0  0.04720  0.26254  0.25787  1.0000
  C   C182      1.0  0.06835  0.27657  0.27222  1.0000
  C   C183      1.0  0.04009  0.31909  0.19051  1.0000
  C   C184      1.0  0.07678  0.34302  0.21461  1.0000
  C   C185      1.0  0.99101  0.25562  0.30555  1.0000
  C   C186      1.0  0.02712  0.28280  0.33856  1.0000
  C   C187      1.0  0.99404  0.30007  0.35715  1.0000
  C   C188      1.0  0.02644  0.34264  0.38677  1.0000
  C   C189      1.0  0.03844  0.23471  0.35613  1.0000
  C   C190      1.0  0.07471  0.28530  0.36551  1.0000
  C   C191      1.0  0.05875  0.30492  0.30609  1.0000
  C   C192      1.0  0.08495  0.33366  0.32424  1.0000
  C   C193      1.0  0.99279  0.28613  0.38556  1.0000
  C   C194      1.0  0.03276  0.26611  0.41637  1.0000
  C   C195      1.0  0.01526  0.29950  0.46155  1.0000
  C   C196      1.0  0.02109  0.34191  0.46000  1.0000
  C   C197      1.0  0.03799  0.27282  0.45369  1.0000
  C   C198      1.0  0.06399  0.27697  0.44522  1.0000
  C   C199      1.0  0.04657  0.29287  0.38956  1.0000
  C   C200      1.0  0.09106  0.32631  0.41818  1.0000
  C   C201      1.0  0.98794  0.26406  0.50576  1.0000
  C   C202      1.0  0.01578  0.26400  0.52251  1.0000
  C   C203      1.0  0.00113  0.28553  0.56203  1.0000
  C   C204      1.0  0.01492  0.33305  0.56630  1.0000
  C   C205      1.0  0.04146  0.26667  0.55068  1.0000
  C   C206      1.0  0.05836  0.28544  0.58352  1.0000
  C   C207      1.0  0.04781  0.31845  0.48970  1.0000
  C   C208      1.0  0.08485  0.33429  0.52644  1.0000
  C   C209      1.0  0.01439  0.26417  0.59627  1.0000
  C   C210      1.0  0.03010  0.27446  0.63011  1.0000
  C   C211      1.0  0.01379  0.31995  0.64209  1.0000
  C   C212      1.0  0.02211  0.33888  0.68097  1.0000
  C   C213      1.0  0.04162  0.25897  0.65383  1.0000
  C   C214      1.0  0.09105  0.28428  0.67379  1.0000
  C   C215      1.0  0.03802  0.29199  0.60955  1.0000
  C   C216      1.0  0.07538  0.32708  0.63510  1.0000
  C   C217      1.0  0.00483  0.25547  0.70737  1.0000
  C   C218      1.0  0.02025  0.28950  0.72878  1.0000
  C   C219      1.0  0.99508  0.30266  0.74180  1.0000
  C   C220      1.0  0.03433  0.33055  0.76375  1.0000
  C   C221      1.0  0.05744  0.26190  0.74984  1.0000
  C   C222      1.0  0.07701  0.27782  0.76837  1.0000
  C   C223      1.0  0.05890  0.29472  0.68317  1.0000
  C   C224      1.0  0.06031  0.34118  0.71309  1.0000
  C   C225      1.0  0.99657  0.24871  0.78855  1.0000
  C   C226      1.0  0.02265  0.28020  0.84541  1.0000
  C   C227      1.0  0.99583  0.30944  0.87115  1.0000
  C   C228      1.0  0.03974  0.33856  0.88431  1.0000
  C   C229      1.0  0.04934  0.26566  0.85265  1.0000
  C   C230      1.0  0.06596  0.30050  0.87475  1.0000
  C   C231      1.0  0.05595  0.30156  0.78686  1.0000
  C   C232      1.0  0.05593  0.29658  0.83126  1.0000
  C   C233      1.0  0.98106  0.25099  0.89969  1.0000
  C   C234      1.0  0.00873  0.27617  0.92869  1.0000
  C   C235      1.0  0.99708  0.31299  0.92117  1.0000
  C   C236      1.0  0.03095  0.34114  0.96024  1.0000
  C   C237      1.0  0.05787  0.25240  0.94698  1.0000
  C   C238      1.0  0.08062  0.26574  0.98350  1.0000
  C   C239      1.0  0.04189  0.31525  0.89885  1.0000
  C   C240      1.0  0.07764  0.32307  0.92425  1.0000
  C   C241      1.0  0.98717  0.34961  0.98454  1.0000
  C   C242      1.0  0.02390  0.37139  0.04976  1.0000
  C   C243      1.0  0.99015  0.38380  0.06150  1.0000
  C   C244      1.0  0.02060  0.43752  0.07517  1.0000
  C   C245      1.0  0.04108  0.35046  0.03791  1.0000
  C   C246      1.0  0.08971  0.38904  0.06036  1.0000
  C   C247      1.0  0.05997  0.41332  0.98195  1.0000
  C   C248      1.0  0.06563  0.43640  0.02743  1.0000
  C   C249      1.0  0.02142  0.35672  0.10956  1.0000
  C   C250      1.0  0.01915  0.38061  0.12442  1.0000
  C   C251      1.0  0.99868  0.40911  0.15023  1.0000
  C   C252      1.0  0.00680  0.43950  0.16208  1.0000
  C   C253      1.0  0.05815  0.36364  0.15678  1.0000
  C   C254      1.0  0.06796  0.38494  0.18212  1.0000
  C   C255      1.0  0.04367  0.39103  0.11793  1.0000
  C   C256      1.0  0.07190  0.42678  0.11372  1.0000
  C   C257      1.0  0.98619  0.32787  0.18788  1.0000
  C   C258      1.0  0.01279  0.37252  0.24535  1.0000
  C   C259      1.0  0.99829  0.40288  0.25040  1.0000
  C   C260      1.0  0.01628  0.44637  0.28803  1.0000
  C   C261      1.0  0.04162  0.36789  0.25800  1.0000
  C   C262      1.0  0.10342  0.39600  0.25992  1.0000
  C   C263      1.0  0.04561  0.41633  0.20621  1.0000
  C   C264      1.0  0.08851  0.43121  0.22783  1.0000
  C   C265      1.0  0.01589  0.36391  0.29978  1.0000
  C   C266      1.0  0.05085  0.38176  0.32693  1.0000
  C   C267      1.0  0.99092  0.41066  0.33159  1.0000
  C   C268      1.0  0.04178  0.40890  0.38456  1.0000
  C   C269      1.0  0.04096  0.36134  0.36637  1.0000
  C   C270      1.0  0.07513  0.38793  0.36812  1.0000
  C   C271      1.0  0.04669  0.42078  0.29210  1.0000
  C   C272      1.0  0.08447  0.43476  0.32067  1.0000
  C   C273      1.0  0.01033  0.34712  0.40356  1.0000
  C   C274      1.0  0.01072  0.37971  0.41113  1.0000
  C   C275      1.0  0.00193  0.41726  0.46080  1.0000
  C   C276      1.0  0.02963  0.43516  0.47004  1.0000
  C   C277      1.0  0.04584  0.34702  0.47205  1.0000
  C   C278      1.0  0.07390  0.38081  0.47632  1.0000
  C   C279      1.0  0.04098  0.42507  0.39495  1.0000
  C   C280      1.0  0.06424  0.45173  0.43775  1.0000
  C   C281      1.0  0.00703  0.35212  0.51545  1.0000
  C   C282      1.0  0.02495  0.38522  0.53721  1.0000
  C   C283      1.0  0.00168  0.40242  0.52656  1.0000
  C   C284      1.0  0.03699  0.40796  0.56622  1.0000
  C   C285      1.0  0.03949  0.35051  0.54447  1.0000
  C   C286      1.0  0.07877  0.37753  0.54338  1.0000
  C   C287      1.0  0.04818  0.39288  0.49366  1.0000
  C   C288      1.0  0.05928  0.42928  0.51998  1.0000
  C   C289      1.0  0.00654  0.36019  0.60836  1.0000
  C   C290      1.0  0.00735  0.39550  0.61765  1.0000
  C   C291      1.0  0.00284  0.41306  0.65647  1.0000
  C   C292      1.0  0.02199  0.41602  0.68239  1.0000
  C   C293      1.0  0.06235  0.36902  0.66128  1.0000
  C   C294      1.0  0.09147  0.39164  0.66991  1.0000
  C   C295      1.0  0.05720  0.39499  0.59865  1.0000
  C   C296      1.0  0.07544  0.44385  0.62097  1.0000
  C   C297      1.0  0.99685  0.35080  0.70438  1.0000
  C   C298      1.0  0.00571  0.35735  0.74202  1.0000
  C   C299      1.0  0.01221  0.41371  0.75300  1.0000
  C   C300      1.0  0.01764  0.41551  0.77860  1.0000
  C   C301      1.0  0.03702  0.36651  0.75175  1.0000
  C   C302      1.0  0.05899  0.38423  0.75526  1.0000
  C   C303      1.0  0.04131  0.41678  0.69147  1.0000
  C   C304      1.0  0.07091  0.42480  0.71845  1.0000
  C   C305      1.0  0.00949  0.36150  0.80469  1.0000
  C   C306      1.0  0.00800  0.37925  0.81655  1.0000
  C   C307      1.0  0.00117  0.39649  0.86026  1.0000
  C   C308      1.0  0.05359  0.43426  0.86912  1.0000
  C   C309      1.0  0.05863  0.34014  0.84454  1.0000
  C   C310      1.0  0.08448  0.37877  0.87497  1.0000
  C   C311      1.0  0.06496  0.41038  0.80649  1.0000
  C   C312      1.0  0.06514  0.45589  0.82148  1.0000
  C   C313      1.0  0.00539  0.35877  0.90005  1.0000
  C   C314      1.0  0.01238  0.38026  0.92680  1.0000
  C   C315      1.0  0.01551  0.41012  0.94617  1.0000
  C   C316      1.0  0.02797  0.43535  0.97481  1.0000
  C   C317      1.0  0.05361  0.37564  0.95095  1.0000
  C   C318      1.0  0.06226  0.37765  0.97277  1.0000
  C   C319      1.0  0.04323  0.41015  0.91097  1.0000
  C   C320      1.0  0.05505  0.42183  0.92083  1.0000
  C   C321      1.0  0.10767  0.43943  0.01144  1.0000
  C   C322      1.0  0.14196  0.09488  0.02846  1.0000
  C   C323      1.0  0.08706  0.10189  0.04406  1.0000
  C   C324      1.0  0.12704  0.14203  0.08201  1.0000
  C   C325      1.0  0.14157  0.06749  0.06347  1.0000
  C   C326      1.0  0.16584  0.07204  0.07096  1.0000
  C   C327      1.0  0.15459  0.09673  0.01362  1.0000
  C   C328      1.0  0.17793  0.14130  0.02006  1.0000
  C   C329      1.0  0.09184  0.06179  0.12307  1.0000
  C   C330      1.0  0.13474  0.09725  0.12195  1.0000
  C   C331      1.0  0.09540  0.10791  0.15812  1.0000
  C   C332      1.0  0.12701  0.12035  0.15979  1.0000
  C   C333      1.0  0.15419  0.45731  0.18017  1.0000
  C   C334      1.0  0.16995  0.07227  0.18352  1.0000
  C   C335      1.0  0.14749  0.10758  0.11126  1.0000
  C   C336      1.0  0.16481  0.12690  0.11829  1.0000
  C   C337      1.0  0.09274  0.45056  0.19681  1.0000
  C   C338      1.0  0.13950  0.07937  0.21415  1.0000
  C   C339      1.0  0.09835  0.09893  0.25076  1.0000
  C   C340      1.0  0.12421  0.12296  0.27159  1.0000
  C   C341      1.0  0.15604  0.07026  0.24892  1.0000
  C   C342      1.0  0.18949  0.09250  0.26073  1.0000
  C   C343      1.0  0.14442  0.07150  0.18820  1.0000
  C   C344      1.0  0.17204  0.12170  0.22510  1.0000
  C   C345      1.0  0.09559  0.05936  0.29419  1.0000
  C   C346      1.0  0.12908  0.08219  0.32721  1.0000
  C   C347      1.0  0.10961  0.09792  0.36907  1.0000
  C   C348      1.0  0.12519  0.13546  0.37344  1.0000
  C   C349      1.0  0.14610  0.44388  0.34558  1.0000
  C   C350      1.0  0.16023  0.06801  0.39156  1.0000
  C   C351      1.0  0.15035  0.10366  0.28946  1.0000
  C   C352      1.0  0.17487  0.13164  0.33162  1.0000
  C   C353      1.0  0.09842  0.05796  0.41292  1.0000
  C   C354      1.0  0.13054  0.09263  0.40752  1.0000
  C   C355      1.0  0.09690  0.11911  0.45172  1.0000
  C   C356      1.0  0.14035  0.12851  0.48751  1.0000
  C   C357      1.0  0.13023  0.44972  0.45193  1.0000
  C   C358      1.0  0.16246  0.05939  0.48379  1.0000
  C   C359      1.0  0.16897  0.10964  0.38568  1.0000
  C   C360      1.0  0.17446  0.11689  0.40237  1.0000
  C   C361      1.0  0.10580  0.06179  0.50073  1.0000
  C   C362      1.0  0.11060  0.45489  0.53079  1.0000
  C   C363      1.0  0.09866  0.11694  0.53202  1.0000
  C   C364      1.0  0.09858  0.14086  0.59092  1.0000
  C   C365      1.0  0.16062  0.06231  0.55089  1.0000
  C   C366      1.0  0.18110  0.07382  0.59740  1.0000
  C   C367      1.0  0.16644  0.08614  0.51241  1.0000
  C   C368      1.0  0.14884  0.13374  0.52015  1.0000
  C   C369      1.0  0.11516  0.05640  0.59650  1.0000
  C   C370      1.0  0.13724  0.07169  0.61520  1.0000
  C   C371      1.0  0.11399  0.11063  0.65056  1.0000
  C   C372      1.0  0.11739  0.12903  0.66986  1.0000
  C   C373      1.0  0.15253  0.05720  0.64766  1.0000
  C   C374      1.0  0.17354  0.09666  0.68124  1.0000
  C   C375      1.0  0.15353  0.10444  0.60241  1.0000
  C   C376      1.0  0.17387  0.13306  0.62887  1.0000
  C   C377      1.0  0.09205  0.44939  0.67268  1.0000
  C   C378      1.0  0.11138  0.08100  0.74584  1.0000
  C   C379      1.0  0.12148  0.10268  0.71616  1.0000
  C   C380      1.0  0.12678  0.13441  0.78949  1.0000
  C   C381      1.0  0.14031  0.45350  0.74606  1.0000
  C   C382      1.0  0.17412  0.06676  0.77805  1.0000
  C   C383      1.0  0.14144  0.10666  0.69796  1.0000
  C   C384      1.0  0.14949  0.13273  0.71059  1.0000
  C   C385      1.0  0.08735  0.44580  0.78363  1.0000
  C   C386      1.0  0.12089  0.45207  0.81589  1.0000
  C   C387      1.0  0.09959  0.10869  0.85999  1.0000
  C   C388      1.0  0.13560  0.14126  0.87180  1.0000
  C   C389      1.0  0.14017  0.43775  0.84247  1.0000
  C   C390      1.0  0.17459  0.07593  0.86363  1.0000
  C   C391      1.0  0.15856  0.12555  0.79604  1.0000
  C   C392      1.0  0.18847  0.13687  0.81370  1.0000
  C   C393      1.0  0.10057  0.45032  0.91250  1.0000
  C   C394      1.0  0.13757  0.08603  0.92116  1.0000
  C   C395      1.0  0.10501  0.10989  0.96303  1.0000
  C   C396      1.0  0.13725  0.13976  0.96131  1.0000
  C   C397      1.0  0.15680  0.06743  0.94564  1.0000
  C   C398      1.0  0.16453  0.08911  0.96145  1.0000
  C   C399      1.0  0.14370  0.10246  0.88870  1.0000
  C   C400      1.0  0.15341  0.14989  0.92056  1.0000
  C   C401      1.0  0.08421  0.17524  0.00136  1.0000
  C   C402      1.0  0.13977  0.19839  0.01493  1.0000
  C   C403      1.0  0.10768  0.21499  0.04034  1.0000
  C   C404      1.0  0.11445  0.24378  0.07703  1.0000
  C   C405      1.0  0.13819  0.14776  0.04971  1.0000
  C   C406      1.0  0.16710  0.20239  0.09885  1.0000
  C   C407      1.0  0.15938  0.20186  0.98810  1.0000
  C   C408      1.0  0.16932  0.25841  0.04110  1.0000
  C   C409      1.0  0.09196  0.15368  0.11274  1.0000
  C   C410      1.0  0.12243  0.17877  0.13215  1.0000
  C   C411      1.0  0.11089  0.20905  0.17601  1.0000
  C   C412      1.0  0.12800  0.23042  0.15681  1.0000
  C   C413      1.0  0.13972  0.15675  0.14897  1.0000
  C   C414      1.0  0.16124  0.21303  0.18206  1.0000
  C   C415      1.0  0.15456  0.20610  0.09900  1.0000
  C   C416      1.0  0.15382  0.23335  0.11446  1.0000
  C   C417      1.0  0.08621  0.17518  0.20113  1.0000
  C   C418      1.0  0.12946  0.18113  0.22054  1.0000
  C   C419      1.0  0.08754  0.21581  0.23976  1.0000
  C   C420      1.0  0.11261  0.21940  0.27967  1.0000
  C   C421      1.0  0.15590  0.16462  0.24911  1.0000
  C   C422      1.0  0.17383  0.19643  0.25974  1.0000
  C   C423      1.0  0.15768  0.20909  0.19502  1.0000
  C   C424      1.0  0.16596  0.21535  0.20907  1.0000
  C   C425      1.0  0.08759  0.15299  0.32243  1.0000
  C   C426      1.0  0.11806  0.17996  0.32037  1.0000
  C   C427      1.0  0.08467  0.19672  0.36637  1.0000
  C   C428      1.0  0.12537  0.21578  0.35276  1.0000
  C   C429      1.0  0.16477  0.15328  0.33547  1.0000
  C   C430      1.0  0.18335  0.17917  0.36812  1.0000
  C   C431      1.0  0.14950  0.22190  0.28990  1.0000
  C   C432      1.0  0.18356  0.23338  0.31928  1.0000
  C   C433      1.0  0.11692  0.15300  0.40193  1.0000
  C   C434      1.0  0.11995  0.16762  0.42863  1.0000
  C   C435      1.0  0.08860  0.22602  0.46690  1.0000
  C   C436      1.0  0.11900  0.22563  0.46610  1.0000
  C   C437      1.0  0.16870  0.14378  0.43800  1.0000
  C   C438      1.0  0.16472  0.17210  0.49095  1.0000
  C   C439      1.0  0.14601  0.20890  0.39809  1.0000
  C   C440      1.0  0.17328  0.25354  0.44454  1.0000
  C   C441      1.0  0.10580  0.14961  0.52517  1.0000
  C   C442      1.0  0.12627  0.17181  0.51620  1.0000
  C   C443      1.0  0.10061  0.21455  0.51987  1.0000
  C   C444      1.0  0.12918  0.23123  0.58079  1.0000
  C   C445      1.0  0.14060  0.16736  0.54490  1.0000
  C   C446      1.0  0.18726  0.20712  0.57787  1.0000
  C   C447      1.0  0.15401  0.21028  0.48181  1.0000
  C   C448      1.0  0.18012  0.21565  0.49765  1.0000
  C   C449      1.0  0.09945  0.16389  0.59083  1.0000
  C   C450      1.0  0.10700  0.19633  0.60756  1.0000
  C   C451      1.0  0.11142  0.20351  0.63770  1.0000
  C   C452      1.0  0.12791  0.20479  0.66666  1.0000
  C   C453      1.0  0.14937  0.15529  0.66425  1.0000
  C   C454      1.0  0.16319  0.18710  0.67258  1.0000
  C   C455      1.0  0.15768  0.21059  0.61184  1.0000
  C   C456      1.0  0.17328  0.24686  0.62482  1.0000
  C   C457      1.0  0.09180  0.15689  0.70135  1.0000
  C   C458      1.0  0.14130  0.16896  0.72512  1.0000
  C   C459      1.0  0.08627  0.21679  0.75943  1.0000
  C   C460      1.0  0.13188  0.21645  0.76325  1.0000
  C   C461      1.0  0.14891  0.16057  0.75768  1.0000
  C   C462      1.0  0.16982  0.18323  0.77097  1.0000
  C   C463      1.0  0.14462  0.20306  0.68823  1.0000
  C   C464      1.0  0.18526  0.24701  0.73136  1.0000
  C   C465      1.0  0.09512  0.17253  0.78962  1.0000
  C   C466      1.0  0.13733  0.19216  0.83813  1.0000
  C   C467      1.0  0.08126  0.21058  0.84458  1.0000
  C   C468      1.0  0.13350  0.23395  0.85223  1.0000
  C   C469      1.0  0.15713  0.17633  0.85533  1.0000
  C   C470      1.0  0.18345  0.18382  0.88101  1.0000
  C   C471      1.0  0.14472  0.22523  0.82566  1.0000
  C   C472      1.0  0.16794  0.23799  0.82166  1.0000
  C   C473      1.0  0.11850  0.16027  0.91032  1.0000
  C   C474      1.0  0.12416  0.19489  0.93477  1.0000
  C   C475      1.0  0.10520  0.21433  0.93576  1.0000
  C   C476      1.0  0.13565  0.22234  0.97021  1.0000
  C   C477      1.0  0.15176  0.16586  0.96081  1.0000
  C   C478      1.0  0.17932  0.18558  0.98391  1.0000
  C   C479      1.0  0.14240  0.20842  0.89399  1.0000
  C   C480      1.0  0.15759  0.22045  0.93778  1.0000
  C   C481      1.0  0.09448  0.23993  0.00111  1.0000
  C   C482      1.0  0.11913  0.27759  0.02200  1.0000
  C   C483      1.0  0.10355  0.30988  0.04885  1.0000
  C   C484      1.0  0.12756  0.33172  0.07928  1.0000
  C   C485      1.0  0.15818  0.25682  0.07179  1.0000
  C   C486      1.0  0.16505  0.27743  0.07377  1.0000
  C   C487      1.0  0.16515  0.31903  0.00524  1.0000
  C   C488      1.0  0.16781  0.33846  0.02603  1.0000
  C   C489      1.0  0.09831  0.27167  0.11789  1.0000
  C   C490      1.0  0.13022  0.27710  0.12940  1.0000
  C   C491      1.0  0.09119  0.29266  0.13164  1.0000
  C   C492      1.0  0.12302  0.32948  0.16717  1.0000
  C   C493      1.0  0.14453  0.25349  0.13842  1.0000
  C   C494      1.0  0.17865  0.29878  0.17226  1.0000
  C   C495      1.0  0.13148  0.30615  0.10180  1.0000
  C   C496      1.0  0.18130  0.34345  0.13344  1.0000
  C   C497      1.0  0.11138  0.25651  0.20407  1.0000
  C   C498      1.0  0.11781  0.27716  0.23349  1.0000
  C   C499      1.0  0.09776  0.29170  0.22944  1.0000
  C   C500      1.0  0.13258  0.32828  0.26915  1.0000
  C   C501      1.0  0.14133  0.26110  0.24884  1.0000
  C   C502      1.0  0.17199  0.27870  0.27293  1.0000
  C   C503      1.0  0.15933  0.30899  0.21365  1.0000
  C   C504      1.0  0.15459  0.32440  0.23346  1.0000
  C   C505      1.0  0.09206  0.25480  0.29596  1.0000
  C   C506      1.0  0.12591  0.28524  0.34559  1.0000
  C   C507      1.0  0.11034  0.30893  0.35550  1.0000
  C   C508      1.0  0.13049  0.33208  0.36852  1.0000
  C   C509      1.0  0.15469  0.26405  0.34278  1.0000
  C   C510      1.0  0.17375  0.28656  0.37910  1.0000
  C   C511      1.0  0.16796  0.30468  0.29266  1.0000
  C   C512      1.0  0.18009  0.32165  0.32269  1.0000
  C   C513      1.0  0.08013  0.26156  0.42423  1.0000
  C   C514      1.0  0.12058  0.27832  0.43104  1.0000
  C   C515      1.0  0.11032  0.29005  0.44731  1.0000
  C   C516      1.0  0.12602  0.33240  0.47776  1.0000
  C   C517      1.0  0.14802  0.25414  0.43808  1.0000
  C   C518      1.0  0.19256  0.28208  0.48675  1.0000
  C   C519      1.0  0.14907  0.30821  0.39831  1.0000
  C   C520      1.0  0.18101  0.33262  0.40868  1.0000
  C   C521      1.0  0.12750  0.25911  0.49249  1.0000
  C   C522      1.0  0.10915  0.27357  0.52241  1.0000
  C   C523      1.0  0.09021  0.31333  0.53415  1.0000
  C   C524      1.0  0.12619  0.33485  0.56423  1.0000
  C   C525      1.0  0.13863  0.24801  0.55110  1.0000
  C   C526      1.0  0.17100  0.27775  0.57764  1.0000
  C   C527      1.0  0.16174  0.30053  0.48751  1.0000
  C   C528      1.0  0.17331  0.33089  0.53787  1.0000
  C   C529      1.0  0.10931  0.25896  0.59300  1.0000
  C   C530      1.0  0.13937  0.27686  0.63111  1.0000
  C   C531      1.0  0.10683  0.31839  0.64489  1.0000
  C   C532      1.0  0.14370  0.34516  0.67449  1.0000
  C   C533      1.0  0.15026  0.23959  0.65543  1.0000
  C   C534      1.0  0.18318  0.27507  0.67706  1.0000
  C   C535      1.0  0.14065  0.33577  0.59560  1.0000
  C   C536      1.0  0.17748  0.33924  0.62268  1.0000
  C   C537      1.0  0.10579  0.26795  0.72242  1.0000
  C   C538      1.0  0.13817  0.30726  0.71461  1.0000
  C   C539      1.0  0.09351  0.29677  0.75113  1.0000
  C   C540      1.0  0.12106  0.32873  0.77680  1.0000
  C   C541      1.0  0.15403  0.24880  0.75240  1.0000
  C   C542      1.0  0.17570  0.28108  0.78890  1.0000
  C   C543      1.0  0.13239  0.30281  0.69500  1.0000
  C   C544      1.0  0.17097  0.32797  0.71770  1.0000
  C   C545      1.0  0.09438  0.26332  0.80564  1.0000
  C   C546      1.0  0.11209  0.26309  0.81858  1.0000
  C   C547      1.0  0.08214  0.30950  0.85290  1.0000
  C   C548      1.0  0.10538  0.33791  0.87379  1.0000
  C   C549      1.0  0.13868  0.26829  0.87365  1.0000
  C   C550      1.0  0.17446  0.28548  0.86511  1.0000
  C   C551      1.0  0.15563  0.30392  0.80770  1.0000
  C   C552      1.0  0.17433  0.33685  0.82087  1.0000
  C   C553      1.0  0.08629  0.26230  0.91959  1.0000
  C   C554      1.0  0.10139  0.28629  0.91581  1.0000
  C   C555      1.0  0.08643  0.31063  0.94981  1.0000
  C   C556      1.0  0.12771  0.33720  0.95638  1.0000
  C   C557      1.0  0.16674  0.27237  0.94440  1.0000
  C   C558      1.0  0.17554  0.26999  0.97811  1.0000
  C   C559      1.0  0.15145  0.31016  0.89811  1.0000
  C   C560      1.0  0.18130  0.33363  0.92354  1.0000
  C   C561      1.0  0.10336  0.36427  0.00768  1.0000
  C   C562      1.0  0.12983  0.39740  0.02189  1.0000
  C   C563      1.0  0.11420  0.40370  0.04681  1.0000
  C   C564      1.0  0.12194  0.44295  0.07112  1.0000
  C   C565      1.0  0.14012  0.36255  0.04244  1.0000
  C   C566      1.0  0.17308  0.38255  0.07614  1.0000
  C   C567      1.0  0.16105  0.40636  0.98650  1.0000
  C   C568      1.0  0.18346  0.42478  0.01329  1.0000
  C   C569      1.0  0.09581  0.36520  0.08578  1.0000
  C   C570      1.0  0.11683  0.39292  0.14310  1.0000
  C   C571      1.0  0.10041  0.41668  0.15260  1.0000
  C   C572      1.0  0.12493  0.42241  0.17655  1.0000
  C   C573      1.0  0.14460  0.35494  0.15116  1.0000
  C   C574      1.0  0.17840  0.37320  0.16972  1.0000
  C   C575      1.0  0.15729  0.42465  0.10101  1.0000
  C   C576      1.0  0.18315  0.44093  0.12027  1.0000
  C   C577      1.0  0.10809  0.35026  0.18629  1.0000
  C   C578      1.0  0.11959  0.38703  0.21701  1.0000
  C   C579      1.0  0.10898  0.40067  0.25635  1.0000
  C   C580      1.0  0.12333  0.44710  0.27181  1.0000
  C   C581      1.0  0.14918  0.35635  0.23971  1.0000
  C   C582      1.0  0.17977  0.37362  0.26643  1.0000
  C   C583      1.0  0.14646  0.40381  0.21473  1.0000
  C   C584      1.0  0.17041  0.44695  0.20217  1.0000
  C   C585      1.0  0.10716  0.35561  0.31883  1.0000
  C   C586      1.0  0.11357  0.38195  0.32560  1.0000
  C   C587      1.0  0.07467  0.40571  0.37830  1.0000
  C   C588      1.0  0.12517  0.44060  0.37302  1.0000
  C   C589      1.0  0.16467  0.34916  0.33907  1.0000
  C   C590      1.0  0.18266  0.36920  0.37513  1.0000
  C   C591      1.0  0.12906  0.41363  0.29451  1.0000
  C   C592      1.0  0.17523  0.43329  0.32725  1.0000
  C   C593      1.0  0.09484  0.35062  0.40768  1.0000
  C   C594      1.0  0.13620  0.36597  0.41690  1.0000
  C   C595      1.0  0.09479  0.39990  0.45915  1.0000
  C   C596      1.0  0.12374  0.42857  0.47788  1.0000
  C   C597      1.0  0.16300  0.33549  0.45460  1.0000
  C   C598      1.0  0.17216  0.37780  0.47343  1.0000
  C   C599      1.0  0.12859  0.40593  0.40274  1.0000
  C   C600      1.0  0.17010  0.41880  0.41686  1.0000
  C   C601      1.0  0.10714  0.37376  0.49952  1.0000
  C   C602      1.0  0.13158  0.39492  0.52787  1.0000
  C   C603      1.0  0.09027  0.41041  0.56727  1.0000
  C   C604      1.0  0.11818  0.42773  0.56236  1.0000
  C   C605      1.0  0.15103  0.34712  0.55802  1.0000
  C   C606      1.0  0.18353  0.37632  0.57122  1.0000
  C   C607      1.0  0.14998  0.39602  0.49371  1.0000
  C   C608      1.0  0.19327  0.43246  0.49166  1.0000
  C   C609      1.0  0.11339  0.35730  0.59948  1.0000
  C   C610      1.0  0.13945  0.39603  0.63656  1.0000
  C   C611      1.0  0.11347  0.38916  0.65873  1.0000
  C   C612      1.0  0.11768  0.43079  0.68522  1.0000
  C   C613      1.0  0.15968  0.36034  0.64364  1.0000
  C   C614      1.0  0.18603  0.37819  0.67644  1.0000
  C   C615      1.0  0.15206  0.41157  0.58924  1.0000
  C   C616      1.0  0.18165  0.43726  0.61885  1.0000
  C   C617      1.0  0.10353  0.36987  0.68677  1.0000
  C   C618      1.0  0.12271  0.37295  0.71917  1.0000
  C   C619      1.0  0.10786  0.40353  0.74214  1.0000
  C   C620      1.0  0.13578  0.43743  0.78304  1.0000
  C   C621      1.0  0.17335  0.35404  0.73143  1.0000
  C   C622      1.0  0.19611  0.38207  0.77679  1.0000
  C   C623      1.0  0.15813  0.41336  0.68705  1.0000
  C   C624      1.0  0.16452  0.42166  0.71740  1.0000
  C   C625      1.0  0.10026  0.36314  0.80627  1.0000
  C   C626      1.0  0.11453  0.38145  0.81725  1.0000
  C   C627      1.0  0.09486  0.41454  0.85107  1.0000
  C   C628      1.0  0.11488  0.43736  0.87932  1.0000
  C   C629      1.0  0.15394  0.35689  0.85044  1.0000
  C   C630      1.0  0.18507  0.37938  0.87916  1.0000
  C   C631      1.0  0.14336  0.41527  0.81456  1.0000
  C   C632      1.0  0.17381  0.43503  0.82769  1.0000
  C   C633      1.0  0.09855  0.37383  0.90185  1.0000
  C   C634      1.0  0.11238  0.39285  0.91944  1.0000
  C   C635      1.0  0.10976  0.38582  0.96145  1.0000
  C   C636      1.0  0.11474  0.42906  0.97723  1.0000
  C   C637      1.0  0.15538  0.34604  0.95620  1.0000
  C   C638      1.0  0.18280  0.38212  0.97540  1.0000
  C   C639      1.0  0.16194  0.40193  0.90593  1.0000
  C   C640      1.0  0.17711  0.43207  0.91802  1.0000
  C   C641      1.0  0.18838  0.06129  0.00651  1.0000
  C   C642      1.0  0.23333  0.07976  0.02748  1.0000
  C   C643      1.0  0.20120  0.11043  0.04856  1.0000
  C   C644      1.0  0.23809  0.12695  0.06217  1.0000
  C   C645      1.0  0.24919  0.45442  0.07068  1.0000
  C   C646      1.0  0.26905  0.07098  0.08725  1.0000
  C   C647      1.0  0.26909  0.12857  0.99343  1.0000
  C   C648      1.0  0.26680  0.16001  0.02290  1.0000
  C   C649      1.0  0.18757  0.06315  0.07674  1.0000
  C   C650      1.0  0.20454  0.07762  0.13014  1.0000
  C   C651      1.0  0.19880  0.10934  0.16096  1.0000
  C   C652      1.0  0.24195  0.12280  0.16716  1.0000
  C   C653      1.0  0.25271  0.45265  0.14143  1.0000
  C   C654      1.0  0.27259  0.06973  0.17629  1.0000
  C   C655      1.0  0.25787  0.10450  0.09384  1.0000
  C   C656      1.0  0.26118  0.12250  0.11539  1.0000
  C   C657      1.0  0.21646  0.07743  0.19638  1.0000
  C   C658      1.0  0.22802  0.10401  0.21606  1.0000
  C   C659      1.0  0.22308  0.10197  0.24207  1.0000
  C   C660      1.0  0.24884  0.12698  0.27954  1.0000
  C   C661      1.0  0.26028  0.05751  0.24064  1.0000
  C   C662      1.0  0.27109  0.09035  0.29136  1.0000
  C   C663      1.0  0.25784  0.09094  0.20616  1.0000
  C   C664      1.0  0.26993  0.14631  0.23533  1.0000
  C   C665      1.0  0.19535  0.44812  0.29454  1.0000
  C   C666      1.0  0.22763  0.08882  0.31701  1.0000
  C   C667      1.0  0.20025  0.12232  0.36539  1.0000
  C   C668      1.0  0.21835  0.14953  0.38756  1.0000
  C   C669      1.0  0.25426  0.06598  0.34146  1.0000
  C   C670      1.0  0.27772  0.08644  0.38241  1.0000
  C   C671      1.0  0.24148  0.11951  0.30122  1.0000
  C   C672      1.0  0.26489  0.14990  0.34062  1.0000
  C   C673      1.0  0.20140  0.45220  0.40443  1.0000
  C   C674      1.0  0.21332  0.06044  0.44494  1.0000
  C   C675      1.0  0.22961  0.11397  0.45415  1.0000
  C   C676      1.0  0.21802  0.11940  0.46469  1.0000
  C   C677      1.0  0.25788  0.45739  0.44932  1.0000
  C   C678      1.0  0.28339  0.07824  0.48558  1.0000
  C   C679      1.0  0.22295  0.10565  0.41086  1.0000
  C   C680      1.0  0.29413  0.13862  0.43534  1.0000
  C   C681      1.0  0.17414  0.06157  0.50073  1.0000
  C   C682      1.0  0.21375  0.08165  0.52549  1.0000
  C   C683      1.0  0.19630  0.11259  0.56477  1.0000
  C   C684      1.0  0.23246  0.13849  0.56555  1.0000
  C   C685      1.0  0.25467  0.05808  0.55409  1.0000
  C   C686      1.0  0.28689  0.08332  0.56548  1.0000
  C   C687      1.0  0.25731  0.09977  0.49754  1.0000
  C   C688      1.0  0.27174  0.13138  0.49877  1.0000
  C   C689      1.0  0.19050  0.45689  0.59929  1.0000
  C   C690      1.0  0.22233  0.08209  0.62795  1.0000
  C   C691      1.0  0.18911  0.12161  0.64756  1.0000
  C   C692      1.0  0.22585  0.12901  0.66063  1.0000
  C   C693      1.0  0.23582  0.45534  0.66585  1.0000
  C   C694      1.0  0.26374  0.08365  0.66299  1.0000
  C   C695      1.0  0.25028  0.09512  0.58643  1.0000
  C   C696      1.0  0.26196  0.12271  0.62328  1.0000
  C   C697      1.0  0.19496  0.44849  0.70426  1.0000
  C   C698      1.0  0.22900  0.07908  0.73131  1.0000
  C   C699      1.0  0.19824  0.09327  0.76136  1.0000
  C   C700      1.0  0.22138  0.12660  0.79548  1.0000
  C   C701      1.0  0.23387  0.44767  0.74109  1.0000
  C   C702      1.0  0.28632  0.08933  0.78217  1.0000
  C   C703      1.0  0.24238  0.09945  0.68850  1.0000
  C   C704      1.0  0.28331  0.12139  0.71841  1.0000
  C   C705      1.0  0.18378  0.06114  0.79672  1.0000
  C   C706      1.0  0.24116  0.08676  0.81559  1.0000
  C   C707      1.0  0.18263  0.09170  0.85055  1.0000
  C   C708      1.0  0.22024  0.12646  0.87585  1.0000
  C   C709      1.0  0.23342  0.44115  0.84199  1.0000
  C   C710      1.0  0.26832  0.06469  0.88710  1.0000
  C   C711      1.0  0.24438  0.08724  0.80084  1.0000
  C   C712      1.0  0.28283  0.15654  0.81930  1.0000
  C   C713      1.0  0.20072  0.44601  0.88966  1.0000
  C   C714      1.0  0.19918  0.07610  0.92625  1.0000
  C   C715      1.0  0.18153  0.11505  0.98190  1.0000
  C   C716      1.0  0.20297  0.13221  0.96807  1.0000
  C   C717      1.0  0.24802  0.45420  0.96799  1.0000
  C   C718      1.0  0.27825  0.08480  0.99089  1.0000
  C   C719      1.0  0.24793  0.12480  0.89051  1.0000
  C   C720      1.0  0.26648  0.13383  0.92256  1.0000
  C   C721      1.0  0.19838  0.15216  0.97955  1.0000
  C   C722      1.0  0.23062  0.17748  0.02747  1.0000
  C   C723      1.0  0.19543  0.20882  0.03146  1.0000
  C   C724      1.0  0.21710  0.22560  0.07352  1.0000
  C   C725      1.0  0.26122  0.16217  0.06598  1.0000
  C   C726      1.0  0.29081  0.17947  0.08764  1.0000
  C   C727      1.0  0.25619  0.18695  0.99724  1.0000
  C   C728      1.0  0.29008  0.25114  0.02196  1.0000
  C   C729      1.0  0.19192  0.16143  0.09952  1.0000
  C   C730      1.0  0.22129  0.18428  0.10669  1.0000
  C   C731      1.0  0.20630  0.21754  0.14764  1.0000
  C   C732      1.0  0.21518  0.23376  0.18035  1.0000
  C   C733      1.0  0.24531  0.15884  0.13675  1.0000
  C   C734      1.0  0.25082  0.18790  0.17582  1.0000
  C   C735      1.0  0.25268  0.18271  0.09190  1.0000
  C   C736      1.0  0.28027  0.21382  0.11686  1.0000
  C   C737      1.0  0.18293  0.16204  0.20095  1.0000
  C   C738      1.0  0.23616  0.16015  0.22097  1.0000
  C   C739      1.0  0.18968  0.22469  0.25008  1.0000
  C   C740      1.0  0.22231  0.22658  0.26342  1.0000
  C   C741      1.0  0.23783  0.15026  0.25187  1.0000
  C   C742      1.0  0.26347  0.19509  0.27659  1.0000
  C   C743      1.0  0.24916  0.21426  0.19877  1.0000
  C   C744      1.0  0.26178  0.25454  0.19119  1.0000
  C   C745      1.0  0.19855  0.16230  0.30153  1.0000
  C   C746      1.0  0.21145  0.17513  0.31728  1.0000
  C   C747      1.0  0.19622  0.20184  0.35706  1.0000
  C   C748      1.0  0.22018  0.21979  0.37909  1.0000
  C   C749      1.0  0.25523  0.17123  0.33440  1.0000
  C   C750      1.0  0.26860  0.16972  0.37373  1.0000
  C   C751      1.0  0.24120  0.21500  0.29918  1.0000
  C   C752      1.0  0.26848  0.23757  0.32483  1.0000
  C   C753      1.0  0.20620  0.18006  0.39184  1.0000
  C   C754      1.0  0.21828  0.16980  0.43254  1.0000
  C   C755      1.0  0.20460  0.20771  0.45502  1.0000
  C   C756      1.0  0.21521  0.24073  0.47216  1.0000
  C   C757      1.0  0.25726  0.15044  0.45189  1.0000
  C   C758      1.0  0.26705  0.18934  0.47956  1.0000
  C   C759      1.0  0.24954  0.21056  0.39620  1.0000
  C   C760      1.0  0.26725  0.24653  0.43492  1.0000
  C   C761      1.0  0.20890  0.15833  0.50844  1.0000
  C   C762      1.0  0.25258  0.15785  0.53152  1.0000
  C   C763      1.0  0.21093  0.20115  0.54971  1.0000
  C   C764      1.0  0.22636  0.24850  0.57026  1.0000
  C   C765      1.0  0.24797  0.17117  0.55262  1.0000
  C   C766      1.0  0.26555  0.16846  0.59699  1.0000
  C   C767      1.0  0.25442  0.21574  0.50027  1.0000
  C   C768      1.0  0.27730  0.21621  0.53868  1.0000
  C   C769      1.0  0.18582  0.14262  0.58950  1.0000
  C   C770      1.0  0.23216  0.17757  0.64242  1.0000
  C   C771      1.0  0.18638  0.21944  0.64791  1.0000
  C   C772      1.0  0.21661  0.23239  0.68213  1.0000
  C   C773      1.0  0.24554  0.16792  0.65352  1.0000
  C   C774      1.0  0.27843  0.16886  0.66890  1.0000
  C   C775      1.0  0.23588  0.20250  0.60738  1.0000
  C   C776      1.0  0.28781  0.21685  0.60550  1.0000
  C   C777      1.0  0.20367  0.15402  0.68837  1.0000
  C   C778      1.0  0.23335  0.17380  0.71715  1.0000
  C   C779      1.0  0.19652  0.20376  0.76542  1.0000
  C   C780      1.0  0.22611  0.23874  0.76781  1.0000
  C   C781      1.0  0.23484  0.17338  0.76955  1.0000
  C   C782      1.0  0.26919  0.16657  0.75785  1.0000
  C   C783      1.0  0.24162  0.18630  0.71630  1.0000
  C   C784      1.0  0.25591  0.23755  0.72256  1.0000
  C   C785      1.0  0.18464  0.15271  0.80969  1.0000
  C   C786      1.0  0.21588  0.18520  0.80878  1.0000
  C   C787      1.0  0.19457  0.20151  0.84716  1.0000
  C   C788      1.0  0.24342  0.22440  0.86661  1.0000
  C   C789      1.0  0.24581  0.14719  0.85301  1.0000
  C   C790      1.0  0.29094  0.21953  0.88703  1.0000
  C   C791      1.0  0.24437  0.22654  0.78072  1.0000
  C   C792      1.0  0.30050  0.22209  0.82006  1.0000
  C   C793      1.0  0.19281  0.16378  0.89212  1.0000
  C   C794      1.0  0.22876  0.18723  0.92271  1.0000
  C   C795      1.0  0.20405  0.20314  0.97438  1.0000
  C   C796      1.0  0.23602  0.23612  0.96062  1.0000
  C   C797      1.0  0.25476  0.14460  0.94141  1.0000
  C   C798      1.0  0.29056  0.18228  0.96263  1.0000
  C   C799      1.0  0.26178  0.23094  0.88432  1.0000
  C   C800      1.0  0.26886  0.22925  0.93104  1.0000
  C   C801      1.0  0.19441  0.24915  0.99103  1.0000
  C   C802      1.0  0.23371  0.27440  0.03065  1.0000
  C   C803      1.0  0.18829  0.30594  0.03258  1.0000
  C   C804      1.0  0.21415  0.33184  0.07435  1.0000
  C   C805      1.0  0.24404  0.27080  0.06427  1.0000
  C   C806      1.0  0.27283  0.26937  0.06509  1.0000
  C   C807      1.0  0.24211  0.30732  0.00410  1.0000
  C   C808      1.0  0.28696  0.33899  0.04082  1.0000
  C   C809      1.0  0.19740  0.23805  0.09417  1.0000
  C   C810      1.0  0.23128  0.29852  0.12488  1.0000
  C   C811      1.0  0.21031  0.31034  0.17239  1.0000
  C   C812      1.0  0.19519  0.32291  0.17201  1.0000
  C   C813      1.0  0.25723  0.25504  0.14212  1.0000
  C   C814      1.0  0.27312  0.28510  0.17057  1.0000
  C   C815      1.0  0.23297  0.30011  0.08943  1.0000
  C   C816      1.0  0.28334  0.32411  0.12695  1.0000
  C   C817      1.0  0.20233  0.25109  0.20270  1.0000
  C   C818      1.0  0.22858  0.30639  0.21504  1.0000
  C   C819      1.0  0.19966  0.31545  0.24459  1.0000
  C   C820      1.0  0.21817  0.32882  0.28574  1.0000
  C   C821      1.0  0.28194  0.24739  0.22754  1.0000
  C   C822      1.0  0.27939  0.26995  0.25789  1.0000
  C   C823      1.0  0.23669  0.28271  0.21880  1.0000
  C   C824      1.0  0.29193  0.34543  0.23519  1.0000
  C   C825      1.0  0.20264  0.24993  0.28654  1.0000
  C   C826      1.0  0.22905  0.30597  0.34603  1.0000
  C   C827      1.0  0.19761  0.31881  0.34818  1.0000
  C   C828      1.0  0.23736  0.32988  0.36330  1.0000
  C   C829      1.0  0.23401  0.26107  0.35644  1.0000
  C   C830      1.0  0.27359  0.26730  0.35990  1.0000
  C   C831      1.0  0.23763  0.32265  0.27456  1.0000
  C   C832      1.0  0.26961  0.32609  0.32291  1.0000
  C   C833      1.0  0.18745  0.26602  0.40036  1.0000
  C   C834      1.0  0.21887  0.27930  0.42205  1.0000
  C   C835      1.0  0.20036  0.29770  0.43007  1.0000
  C   C836      1.0  0.21597  0.33756  0.46790  1.0000
  C   C837      1.0  0.23780  0.26932  0.43540  1.0000
  C   C838      1.0  0.28525  0.25617  0.47994  1.0000
  C   C839      1.0  0.27415  0.31875  0.39279  1.0000
  C   C840      1.0  0.27478  0.33792  0.43301  1.0000
  C   C841      1.0  0.20133  0.23141  0.50437  1.0000
  C   C842      1.0  0.22496  0.27323  0.52227  1.0000
  C   C843      1.0  0.19028  0.33114  0.53970  1.0000
  C   C844      1.0  0.24291  0.36511  0.57567  1.0000
  C   C845      1.0  0.26323  0.24385  0.57442  1.0000
  C   C846      1.0  0.27260  0.28545  0.57874  1.0000
  C   C847      1.0  0.23050  0.30110  0.51322  1.0000
  C   C848      1.0  0.27754  0.34092  0.51000  1.0000
  C   C849      1.0  0.18569  0.26184  0.60061  1.0000
  C   C850      1.0  0.22111  0.27958  0.61671  1.0000
  C   C851      1.0  0.20849  0.30064  0.65116  1.0000
  C   C852      1.0  0.22526  0.32915  0.68138  1.0000
  C   C853      1.0  0.24093  0.25515  0.66184  1.0000
  C   C854      1.0  0.27262  0.30191  0.66474  1.0000
  C   C855      1.0  0.24741  0.30272  0.59422  1.0000
  C   C856      1.0  0.28402  0.31678  0.61529  1.0000
  C   C857      1.0  0.21919  0.25725  0.71973  1.0000
  C   C858      1.0  0.21409  0.29989  0.72310  1.0000
  C   C859      1.0  0.20005  0.31991  0.74840  1.0000
  C   C860      1.0  0.21069  0.33866  0.75900  1.0000
  C   C861      1.0  0.24934  0.26228  0.75518  1.0000
  C   C862      1.0  0.26881  0.28886  0.77506  1.0000
  C   C863      1.0  0.25252  0.29629  0.69094  1.0000
  C   C864      1.0  0.25282  0.32573  0.71706  1.0000
  C   C865      1.0  0.21369  0.26251  0.79533  1.0000
  C   C866      1.0  0.20687  0.29146  0.80893  1.0000
  C   C867      1.0  0.19909  0.31228  0.85131  1.0000
  C   C868      1.0  0.20847  0.31758  0.85617  1.0000
  C   C869      1.0  0.24695  0.26521  0.85002  1.0000
  C   C870      1.0  0.27972  0.29716  0.87432  1.0000
  C   C871      1.0  0.24644  0.30264  0.79270  1.0000
  C   C872      1.0  0.26808  0.32240  0.82830  1.0000
  C   C873      1.0  0.18743  0.25390  0.90923  1.0000
  C   C874      1.0  0.22939  0.29919  0.91304  1.0000
  C   C875      1.0  0.19933  0.29281  0.94337  1.0000
  C   C876      1.0  0.23511  0.32306  0.97111  1.0000
  C   C877      1.0  0.25700  0.26063  0.92709  1.0000
  C   C878      1.0  0.26684  0.29496  0.99213  1.0000
  C   C879      1.0  0.25311  0.32847  0.90717  1.0000
  C   C880      1.0  0.27593  0.32547  0.92277  1.0000
  C   C881      1.0  0.19862  0.33862  0.99650  1.0000
  C   C882      1.0  0.22524  0.38364  0.01903  1.0000
  C   C883      1.0  0.22193  0.38963  0.03737  1.0000
  C   C884      1.0  0.25660  0.42712  0.07909  1.0000
  C   C885      1.0  0.24488  0.34681  0.04278  1.0000
  C   C886      1.0  0.26858  0.36376  0.08164  1.0000
  C   C887      1.0  0.25395  0.40142  0.00087  1.0000
  C   C888      1.0  0.28511  0.43671  0.02819  1.0000
  C   C889      1.0  0.20624  0.36533  0.09918  1.0000
  C   C890      1.0  0.23551  0.39184  0.10708  1.0000
  C   C891      1.0  0.19139  0.41442  0.15115  1.0000
  C   C892      1.0  0.22254  0.42078  0.19160  1.0000
  C   C893      1.0  0.24538  0.35403  0.15323  1.0000
  C   C894      1.0  0.24986  0.39941  0.17397  1.0000
  C   C895      1.0  0.25025  0.40192  0.10743  1.0000
  C   C896      1.0  0.25797  0.42400  0.14056  1.0000
  C   C897      1.0  0.19778  0.33515  0.19906  1.0000
  C   C898      1.0  0.21280  0.36739  0.23220  1.0000
  C   C899      1.0  0.19419  0.42592  0.24089  1.0000
  C   C900      1.0  0.23095  0.41747  0.25976  1.0000
  C   C901      1.0  0.25645  0.34822  0.25327  1.0000
  C   C902      1.0  0.27540  0.38968  0.27305  1.0000
  C   C903      1.0  0.24683  0.40816  0.20387  1.0000
  C   C904      1.0  0.27871  0.42748  0.24323  1.0000
  C   C905      1.0  0.19201  0.35228  0.27830  1.0000
  C   C906      1.0  0.21899  0.38354  0.33452  1.0000
  C   C907      1.0  0.20300  0.42230  0.36061  1.0000
  C   C908      1.0  0.22090  0.05842  0.39059  1.0000
  C   C909      1.0  0.26632  0.34175  0.35890  1.0000
  C   C910      1.0  0.26036  0.38595  0.39515  1.0000
  C   C911      1.0  0.22345  0.40982  0.31107  1.0000
  C   C912      1.0  0.26752  0.42589  0.31621  1.0000
  C   C913      1.0  0.20551  0.36483  0.41403  1.0000
  C   C914      1.0  0.22271  0.40177  0.41497  1.0000
  C   C915      1.0  0.18685  0.39873  0.43418  1.0000
  C   C916      1.0  0.21518  0.43048  0.48255  1.0000
  C   C917      1.0  0.26034  0.36251  0.45828  1.0000
  C   C918      1.0  0.25809  0.38551  0.49765  1.0000
  C   C919      1.0  0.24481  0.40907  0.39982  1.0000
  C   C920      1.0  0.28182  0.43618  0.40069  1.0000
  C   C921      1.0  0.19427  0.34961  0.50265  1.0000
  C   C922      1.0  0.21557  0.37366  0.52680  1.0000
  C   C923      1.0  0.20443  0.42374  0.54220  1.0000
  C   C924      1.0  0.25239  0.43471  0.59364  1.0000
  C   C925      1.0  0.25300  0.35465  0.55827  1.0000
  C   C926      1.0  0.27381  0.39186  0.56670  1.0000
  C   C927      1.0  0.23747  0.41916  0.47563  1.0000
  C   C928      1.0  0.27836  0.42151  0.53026  1.0000
  C   C929      1.0  0.19661  0.35225  0.59722  1.0000
  C   C930      1.0  0.21925  0.39588  0.63165  1.0000
  C   C931      1.0  0.19172  0.40035  0.66869  1.0000
  C   C932      1.0  0.22493  0.44323  0.67504  1.0000
  C   C933      1.0  0.24982  0.34601  0.66316  1.0000
  C   C934      1.0  0.29012  0.37073  0.68193  1.0000
  C   C935      1.0  0.26639  0.40957  0.59597  1.0000
  C   C936      1.0  0.26502  0.44531  0.62478  1.0000
  C   C937      1.0  0.20388  0.34768  0.67978  1.0000
  C   C938      1.0  0.21087  0.37516  0.72673  1.0000
  C   C939      1.0  0.21104  0.41036  0.74760  1.0000
  C   C940      1.0  0.22844  0.42532  0.77565  1.0000
  C   C941      1.0  0.23684  0.35987  0.73505  1.0000
  C   C942      1.0  0.26742  0.38065  0.77791  1.0000
  C   C943      1.0  0.25005  0.40862  0.70468  1.0000
  C   C944      1.0  0.27628  0.43897  0.72804  1.0000
  C   C945      1.0  0.20175  0.33766  0.81393  1.0000
  C   C946      1.0  0.22323  0.37389  0.83677  1.0000
  C   C947      1.0  0.20252  0.39802  0.84607  1.0000
  C   C948      1.0  0.22958  0.43109  0.88744  1.0000
  C   C949      1.0  0.25074  0.33233  0.86164  1.0000
  C   C950      1.0  0.25970  0.35795  0.86496  1.0000
  C   C951      1.0  0.25405  0.39016  0.79080  1.0000
  C   C952      1.0  0.28362  0.44588  0.83208  1.0000
  C   C953      1.0  0.19219  0.35724  0.91000  1.0000
  C   C954      1.0  0.22255  0.38958  0.92502  1.0000
  C   C955      1.0  0.17563  0.39767  0.95709  1.0000
  C   C956      1.0  0.21854  0.42022  0.98007  1.0000
  C   C957      1.0  0.24153  0.36852  0.94019  1.0000
  C   C958      1.0  0.27891  0.37467  0.98387  1.0000
  C   C959      1.0  0.24139  0.40668  0.89303  1.0000
  C   C960      1.0  0.27799  0.43074  0.93003  1.0000
  C   C961      1.0  0.29774  0.45238  0.01111  1.0000
  C   C962      1.0  0.32886  0.09427  0.01444  1.0000
  C   C963      1.0  0.31523  0.10580  0.04652  1.0000
  C   C964      1.0  0.31260  0.11689  0.07638  1.0000
  C   C965      1.0  0.35686  0.05646  0.05621  1.0000
  C   C966      1.0  0.36257  0.08180  0.07130  1.0000
  C   C967      1.0  0.36290  0.09240  0.98589  1.0000
  C   C968      1.0  0.37425  0.13112  0.02052  1.0000
  C   C969      1.0  0.30058  0.06017  0.09343  1.0000
  C   C970      1.0  0.34198  0.06716  0.13200  1.0000
  C   C971      1.0  0.27099  0.11525  0.13845  1.0000
  C   C972      1.0  0.32576  0.13039  0.16478  1.0000
  C   C973      1.0  0.34575  0.45041  0.14408  1.0000
  C   C974      1.0  0.38168  0.06227  0.17979  1.0000
  C   C975      1.0  0.34038  0.11262  0.10157  1.0000
  C   C976      1.0  0.38016  0.12912  0.12716  1.0000
  C   C977      1.0  0.29594  0.45669  0.20406  1.0000
  C   C978      1.0  0.33612  0.08565  0.21969  1.0000
  C   C979      1.0  0.28283  0.10152  0.24953  1.0000
  C   C980      1.0  0.32109  0.14205  0.28628  1.0000
  C   C981      1.0  0.35175  0.44492  0.25133  1.0000
  C   C982      1.0  0.36924  0.06167  0.27083  1.0000
  C   C983      1.0  0.34288  0.10987  0.17861  1.0000
  C   C984      1.0  0.35545  0.13176  0.23920  1.0000
  C   C985      1.0  0.30011  0.45762  0.30096  1.0000
  C   C986      1.0  0.31831  0.06058  0.32195  1.0000
  C   C987      1.0  0.29432  0.09206  0.36895  1.0000
  C   C988      1.0  0.31252  0.13757  0.39775  1.0000
  C   C989      1.0  0.34818  0.45266  0.34281  1.0000
  C   C990      1.0  0.38136  0.08252  0.37545  1.0000
  C   C991      1.0  0.32415  0.10815  0.29602  1.0000
  C   C992      1.0  0.37976  0.11737  0.32281  1.0000
  C   C993      1.0  0.30045  0.05874  0.40513  1.0000
  C   C994      1.0  0.31210  0.08934  0.43052  1.0000
  C   C995      1.0  0.28580  0.10549  0.45035  1.0000
  C   C996      1.0  0.32318  0.10998  0.47605  1.0000
  C   C997      1.0  0.36013  0.43954  0.45303  1.0000
  C   C998      1.0  0.39410  0.07593  0.48973  1.0000
  C   C999      1.0  0.37403  0.10687  0.41065  1.0000
  C   C1000     1.0  0.38867  0.12525  0.42782  1.0000
  C   C1001     1.0  0.31009  0.06473  0.49948  1.0000
  C   C1002     1.0  0.31985  0.09586  0.54837  1.0000
  C   C1003     1.0  0.30754  0.11372  0.53937  1.0000
  C   C1004     1.0  0.31460  0.12518  0.58110  1.0000
  C   C1005     1.0  0.35876  0.05825  0.54510  1.0000
  C   C1006     1.0  0.37440  0.08584  0.57136  1.0000
  C   C1007     1.0  0.34224  0.12682  0.48825  1.0000
  C   C1008     1.0  0.37342  0.14791  0.52480  1.0000
  C   C1009     1.0  0.31354  0.06287  0.59231  1.0000
  C   C1010     1.0  0.32202  0.07030  0.62885  1.0000
  C   C1011     1.0  0.30658  0.09833  0.65601  1.0000
  C   C1012     1.0  0.31939  0.10043  0.65175  1.0000
  C   C1013     1.0  0.35562  0.07031  0.66946  1.0000
  C   C1014     1.0  0.36199  0.08848  0.67340  1.0000
  C   C1015     1.0  0.34839  0.08626  0.60802  1.0000
  C   C1016     1.0  0.37384  0.13083  0.63362  1.0000
  C   C1017     1.0  0.30226  0.44378  0.71652  1.0000
  C   C1018     1.0  0.30506  0.08005  0.71980  1.0000
  C   C1019     1.0  0.31605  0.09707  0.73220  1.0000
  C   C1020     1.0  0.32855  0.11746  0.74798  1.0000
  C   C1021     1.0  0.33693  0.45591  0.73857  1.0000
  C   C1022     1.0  0.39253  0.06886  0.76542  1.0000
  C   C1023     1.0  0.34242  0.10885  0.70729  1.0000
  C   C1024     1.0  0.36923  0.13112  0.70524  1.0000
  C   C1025     1.0  0.30865  0.05851  0.80091  1.0000
  C   C1026     1.0  0.33312  0.08389  0.81552  1.0000
  C   C1027     1.0  0.29324  0.11038  0.86081  1.0000
  C   C1028     1.0  0.31084  0.13179  0.86072  1.0000
  C   C1029     1.0  0.36449  0.06617  0.83735  1.0000
  C   C1030     1.0  0.38896  0.06929  0.86985  1.0000
  C   C1031     1.0  0.35573  0.12333  0.78691  1.0000
  C   C1032     1.0  0.38702  0.13131  0.81970  1.0000
  C   C1033     1.0  0.29512  0.45679  0.89622  1.0000
  C   C1034     1.0  0.31995  0.08218  0.91920  1.0000
  C   C1035     1.0  0.31441  0.12240  0.95569  1.0000
  C   C1036     1.0  0.32677  0.14380  0.96634  1.0000
  C   C1037     1.0  0.35469  0.05970  0.96697  1.0000
  C   C1038     1.0  0.36020  0.08569  0.98751  1.0000
  C   C1039     1.0  0.34886  0.11018  0.89987  1.0000
  C   C1040     1.0  0.35822  0.12017  0.92746  1.0000
  C   C1041     1.0  0.31724  0.13814  0.99557  1.0000
  C   C1042     1.0  0.33915  0.18285  0.02618  1.0000
  C   C1043     1.0  0.29999  0.19770  0.03039  1.0000
  C   C1044     1.0  0.33089  0.24274  0.09730  1.0000
  C   C1045     1.0  0.36119  0.12707  0.05106  1.0000
  C   C1046     1.0  0.36624  0.18440  0.08239  1.0000
  C   C1047     1.0  0.33597  0.21441  0.00185  1.0000
  C   C1048     1.0  0.38428  0.23782  0.03185  1.0000
  C   C1049     1.0  0.28758  0.15587  0.10877  1.0000
  C   C1050     1.0  0.32121  0.19503  0.11113  1.0000
  C   C1051     1.0  0.29990  0.21388  0.16426  1.0000
  C   C1052     1.0  0.32132  0.26502  0.17984  1.0000
  C   C1053     1.0  0.34069  0.14115  0.13911  1.0000
  C   C1054     1.0  0.37073  0.18433  0.17131  1.0000
  C   C1055     1.0  0.37024  0.22394  0.11204  1.0000
  C   C1056     1.0  0.39708  0.22646  0.12015  1.0000
  C   C1057     1.0  0.30251  0.15781  0.20257  1.0000
  C   C1058     1.0  0.34583  0.20007  0.22769  1.0000
  C   C1059     1.0  0.29125  0.19021  0.26122  1.0000
  C   C1060     1.0  0.35168  0.23951  0.27243  1.0000
  C   C1061     1.0  0.34530  0.14883  0.25681  1.0000
  C   C1062     1.0  0.37261  0.19645  0.25154  1.0000
  C   C1063     1.0  0.34610  0.21380  0.19607  1.0000
  C   C1064     1.0  0.37124  0.23463  0.22609  1.0000
  C   C1065     1.0  0.28624  0.15645  0.29353  1.0000
  C   C1066     1.0  0.32850  0.16529  0.32465  1.0000
  C   C1067     1.0  0.28368  0.19055  0.34746  1.0000
  C   C1068     1.0  0.32172  0.25175  0.37566  1.0000
  C   C1069     1.0  0.36451  0.17660  0.33881  1.0000
  C   C1070     1.0  0.38256  0.18331  0.36065  1.0000
  C   C1071     1.0  0.35042  0.20015  0.28067  1.0000
  C   C1072     1.0  0.38024  0.23562  0.32516  1.0000
  C   C1073     1.0  0.29777  0.15744  0.40492  1.0000
  C   C1074     1.0  0.30343  0.19072  0.41386  1.0000
  C   C1075     1.0  0.31219  0.20511  0.44764  1.0000
  C   C1076     1.0  0.32358  0.25123  0.49022  1.0000
  C   C1077     1.0  0.34690  0.15584  0.45570  1.0000
  C   C1078     1.0  0.37344  0.18193  0.46878  1.0000
  C   C1079     1.0  0.36788  0.19278  0.38310  1.0000
  C   C1080     1.0  0.36248  0.22535  0.42329  1.0000
  C   C1081     1.0  0.29432  0.17102  0.48487  1.0000
  C   C1082     1.0  0.31638  0.19440  0.52197  1.0000
  C   C1083     1.0  0.30274  0.22077  0.54397  1.0000
  C   C1084     1.0  0.32859  0.22529  0.55911  1.0000
  C   C1085     1.0  0.34270  0.15550  0.56218  1.0000
  C   C1086     1.0  0.38378  0.18923  0.58173  1.0000
  C   C1087     1.0  0.34786  0.20727  0.49740  1.0000
  C   C1088     1.0  0.37725  0.25376  0.52799  1.0000
  C   C1089     1.0  0.30120  0.16586  0.60257  1.0000
  C   C1090     1.0  0.31389  0.18042  0.63599  1.0000
  C   C1091     1.0  0.30465  0.20620  0.64338  1.0000
  C   C1092     1.0  0.31772  0.22873  0.67605  1.0000
  C   C1093     1.0  0.34057  0.16078  0.66008  1.0000
  C   C1094     1.0  0.33730  0.19530  0.67996  1.0000
  C   C1095     1.0  0.35260  0.21485  0.58793  1.0000
  C   C1096     1.0  0.38173  0.21892  0.62390  1.0000
  C   C1097     1.0  0.29384  0.16413  0.70443  1.0000
  C   C1098     1.0  0.32787  0.18740  0.73924  1.0000
  C   C1099     1.0  0.30572  0.20746  0.76248  1.0000
  C   C1100     1.0  0.32446  0.22760  0.78440  1.0000
  C   C1101     1.0  0.35701  0.17050  0.74113  1.0000
  C   C1102     1.0  0.36793  0.17848  0.78600  1.0000
  C   C1103     1.0  0.36572  0.21652  0.69946  1.0000
  C   C1104     1.0  0.36908  0.22430  0.69405  1.0000
  C   C1105     1.0  0.30345  0.13730  0.78734  1.0000
  C   C1106     1.0  0.31936  0.19388  0.82185  1.0000
  C   C1107     1.0  0.30487  0.22593  0.85054  1.0000
  C   C1108     1.0  0.31591  0.24320  0.88395  1.0000
  C   C1109     1.0  0.34471  0.17875  0.84609  1.0000
  C   C1110     1.0  0.37814  0.18560  0.86361  1.0000
  C   C1111     1.0  0.34263  0.20596  0.80963  1.0000
  C   C1112     1.0  0.38350  0.23638  0.80658  1.0000
  C   C1113     1.0  0.30177  0.15737  0.91409  1.0000
  C   C1114     1.0  0.32619  0.20100  0.93492  1.0000
  C   C1115     1.0  0.30370  0.20209  0.95328  1.0000
  C   C1116     1.0  0.31858  0.24005  0.95704  1.0000
  C   C1117     1.0  0.34565  0.15536  0.93004  1.0000
  C   C1118     1.0  0.37747  0.18921  0.98062  1.0000
  C   C1119     1.0  0.35118  0.19912  0.89169  1.0000
  C   C1120     1.0  0.37581  0.24094  0.92603  1.0000
  C   C1121     1.0  0.28195  0.25294  0.99647  1.0000
  C   C1122     1.0  0.32820  0.27369  0.02475  1.0000
  C   C1123     1.0  0.30099  0.30433  0.06443  1.0000
  C   C1124     1.0  0.32950  0.34069  0.06902  1.0000
  C   C1125     1.0  0.35343  0.23582  0.06788  1.0000
  C   C1126     1.0  0.37188  0.29017  0.06229  1.0000
  C   C1127     1.0  0.36841  0.29419  0.99221  1.0000
  C   C1128     1.0  0.37276  0.32999  0.01439  1.0000
  C   C1129     1.0  0.29703  0.27132  0.10299  1.0000
  C   C1130     1.0  0.33902  0.29501  0.12626  1.0000
  C   C1131     1.0  0.30477  0.31029  0.14155  1.0000
  C   C1132     1.0  0.32713  0.33943  0.17191  1.0000
  C   C1133     1.0  0.35271  0.24490  0.16239  1.0000
  C   C1134     1.0  0.37079  0.26864  0.18510  1.0000
  C   C1135     1.0  0.35972  0.30938  0.10631  1.0000
  C   C1136     1.0  0.38180  0.33276  0.12813  1.0000
  C   C1137     1.0  0.30086  0.27502  0.19871  1.0000
  C   C1138     1.0  0.30606  0.28008  0.24528  1.0000
  C   C1139     1.0  0.29165  0.29381  0.24777  1.0000
  C   C1140     1.0  0.34611  0.32070  0.27602  1.0000
  C   C1141     1.0  0.32562  0.25634  0.23929  1.0000
  C   C1142     1.0  0.39085  0.26496  0.27057  1.0000
  C   C1143     1.0  0.33996  0.32012  0.21674  1.0000
  C   C1144     1.0  0.36998  0.33445  0.22470  1.0000
  C   C1145     1.0  0.30618  0.24701  0.27705  1.0000
  C   C1146     1.0  0.32189  0.27522  0.31773  1.0000
  C   C1147     1.0  0.29285  0.29280  0.35457  1.0000
  C   C1148     1.0  0.32707  0.33031  0.37086  1.0000
  C   C1149     1.0  0.34354  0.24487  0.35857  1.0000
  C   C1150     1.0  0.38885  0.27153  0.36811  1.0000
  C   C1151     1.0  0.33308  0.30903  0.31470  1.0000
  C   C1152     1.0  0.37528  0.34181  0.29949  1.0000
  C   C1153     1.0  0.27617  0.27171  0.38866  1.0000
  C   C1154     1.0  0.31903  0.27568  0.44382  1.0000
  C   C1155     1.0  0.29213  0.29294  0.46972  1.0000
  C   C1156     1.0  0.32492  0.33196  0.45921  1.0000
  C   C1157     1.0  0.35923  0.26173  0.44861  1.0000
  C   C1158     1.0  0.36803  0.29012  0.47602  1.0000
  C   C1159     1.0  0.34620  0.28951  0.40246  1.0000
  C   C1160     1.0  0.39704  0.33161  0.43240  1.0000
  C   C1161     1.0  0.29983  0.25547  0.50738  1.0000
  C   C1162     1.0  0.31894  0.27376  0.51118  1.0000
  C   C1163     1.0  0.30596  0.32445  0.53380  1.0000
  C   C1164     1.0  0.32333  0.32498  0.57291  1.0000
  C   C1165     1.0  0.35035  0.25678  0.55500  1.0000
  C   C1166     1.0  0.37638  0.28745  0.56270  1.0000
  C   C1167     1.0  0.36007  0.30159  0.49794  1.0000
  C   C1168     1.0  0.37558  0.32816  0.52327  1.0000
  C   C1169     1.0  0.30832  0.26795  0.60487  1.0000
  C   C1170     1.0  0.33031  0.26718  0.62741  1.0000
  C   C1171     1.0  0.27975  0.28989  0.63753  1.0000
  C   C1172     1.0  0.35593  0.32993  0.66052  1.0000
  C   C1173     1.0  0.36047  0.26756  0.65299  1.0000
  C   C1174     1.0  0.38180  0.27140  0.68607  1.0000
  C   C1175     1.0  0.33363  0.29954  0.59633  1.0000
  C   C1176     1.0  0.35895  0.32493  0.64619  1.0000
  C   C1177     1.0  0.28477  0.27018  0.68317  1.0000
  C   C1178     1.0  0.31778  0.30129  0.73753  1.0000
  C   C1179     1.0  0.28772  0.32065  0.74569  1.0000
  C   C1180     1.0  0.33523  0.33949  0.77665  1.0000
  C   C1181     1.0  0.35070  0.25221  0.76864  1.0000
  C   C1182     1.0  0.37186  0.27175  0.78007  1.0000
  C   C1183     1.0  0.33940  0.30572  0.70428  1.0000
  C   C1184     1.0  0.37104  0.32295  0.72557  1.0000
  C   C1185     1.0  0.29891  0.25277  0.79107  1.0000
  C   C1186     1.0  0.33443  0.29438  0.82318  1.0000
  C   C1187     1.0  0.29207  0.30484  0.83726  1.0000
  C   C1188     1.0  0.32076  0.33169  0.87206  1.0000
  C   C1189     1.0  0.34767  0.25219  0.86635  1.0000
  C   C1190     1.0  0.36890  0.27341  0.89898  1.0000
  C   C1191     1.0  0.32882  0.32065  0.79614  1.0000
  C   C1192     1.0  0.39046  0.35691  0.83744  1.0000
  C   C1193     1.0  0.29331  0.25085  0.88707  1.0000
  C   C1194     1.0  0.32839  0.29468  0.91765  1.0000
  C   C1195     1.0  0.32541  0.30323  0.93009  1.0000
  C   C1196     1.0  0.33815  0.34015  0.98496  1.0000
  C   C1197     1.0  0.33624  0.25886  0.94576  1.0000
  C   C1198     1.0  0.38715  0.29268  0.97173  1.0000
  C   C1199     1.0  0.35171  0.28652  0.89583  1.0000
  C   C1200     1.0  0.37416  0.33712  0.93622  1.0000
  C   C1201     1.0  0.28822  0.35639  0.02093  1.0000
  C   C1202     1.0  0.34221  0.39689  0.01991  1.0000
  C   C1203     1.0  0.28729  0.40778  0.04343  1.0000
  C   C1204     1.0  0.32971  0.43933  0.09503  1.0000
  C   C1205     1.0  0.34388  0.37000  0.06895  1.0000
  C   C1206     1.0  0.37831  0.38423  0.04593  1.0000
  C   C1207     1.0  0.35712  0.41388  0.01903  1.0000
  C   C1208     1.0  0.36486  0.43461  0.01785  1.0000
  C   C1209     1.0  0.28679  0.39710  0.09719  1.0000
  C   C1210     1.0  0.34565  0.35419  0.13256  1.0000
  C   C1211     1.0  0.29326  0.41734  0.14743  1.0000
  C   C1212     1.0  0.32461  0.43353  0.17161  1.0000
  C   C1213     1.0  0.35487  0.36411  0.16286  1.0000
  C   C1214     1.0  0.37705  0.38396  0.17610  1.0000
  C   C1215     1.0  0.34898  0.39293  0.09164  1.0000
  C   C1216     1.0  0.38041  0.44290  0.12556  1.0000
  C   C1217     1.0  0.30937  0.33845  0.20650  1.0000
  C   C1218     1.0  0.32526  0.38090  0.22233  1.0000
  C   C1219     1.0  0.29486  0.40943  0.25966  1.0000
  C   C1220     1.0  0.33338  0.43785  0.26509  1.0000
  C   C1221     1.0  0.33483  0.37129  0.23231  1.0000
  C   C1222     1.0  0.36366  0.37236  0.27607  1.0000
  C   C1223     1.0  0.34655  0.40417  0.18629  1.0000
  C   C1224     1.0  0.34882  0.44621  0.23610  1.0000
  C   C1225     1.0  0.29654  0.36113  0.29127  1.0000
  C   C1226     1.0  0.33348  0.39798  0.32919  1.0000
  C   C1227     1.0  0.27958  0.39267  0.37284  1.0000
  C   C1228     1.0  0.33835  0.41768  0.38473  1.0000
  C   C1229     1.0  0.33175  0.35482  0.33995  1.0000
  C   C1230     1.0  0.38235  0.39035  0.36493  1.0000
  C   C1231     1.0  0.34961  0.41791  0.32382  1.0000
  C   C1232     1.0  0.38022  0.44032  0.31565  1.0000
  C   C1233     1.0  0.29844  0.38022  0.40632  1.0000
  C   C1234     1.0  0.32708  0.38297  0.44578  1.0000
  C   C1235     1.0  0.29896  0.39727  0.44646  1.0000
  C   C1236     1.0  0.32880  0.43701  0.46693  1.0000
  C   C1237     1.0  0.35980  0.36279  0.46293  1.0000
  C   C1238     1.0  0.37894  0.36626  0.46588  1.0000
  C   C1239     1.0  0.35701  0.39584  0.40038  1.0000
  C   C1240     1.0  0.36361  0.43137  0.44981  1.0000
  C   C1241     1.0  0.27827  0.36539  0.51897  1.0000
  C   C1242     1.0  0.32302  0.39182  0.53361  1.0000
  C   C1243     1.0  0.29881  0.39878  0.53698  1.0000
  C   C1244     1.0  0.33058  0.44531  0.57246  1.0000
  C   C1245     1.0  0.34007  0.36492  0.54474  1.0000
  C   C1246     1.0  0.37441  0.39191  0.56569  1.0000
  C   C1247     1.0  0.35348  0.38359  0.51173  1.0000
  C   C1248     1.0  0.37794  0.41811  0.52920  1.0000
  C   C1249     1.0  0.30051  0.35721  0.58974  1.0000
  C   C1250     1.0  0.34121  0.37344  0.62671  1.0000
  C   C1251     1.0  0.30250  0.39678  0.65348  1.0000
  C   C1252     1.0  0.32812  0.43065  0.68365  1.0000
  C   C1253     1.0  0.34729  0.35124  0.67307  1.0000
  C   C1254     1.0  0.37505  0.38402  0.67490  1.0000
  C   C1255     1.0  0.35483  0.39392  0.58196  1.0000
  C   C1256     1.0  0.37002  0.42975  0.61985  1.0000
  C   C1257     1.0  0.29390  0.36806  0.69286  1.0000
  C   C1258     1.0  0.34081  0.38354  0.72861  1.0000
  C   C1259     1.0  0.30393  0.40146  0.74209  1.0000
  C   C1260     1.0  0.32980  0.43333  0.78849  1.0000
  C   C1261     1.0  0.34966  0.35193  0.74482  1.0000
  C   C1262     1.0  0.37658  0.38476  0.77162  1.0000
  C   C1263     1.0  0.35578  0.42571  0.70430  1.0000
  C   C1264     1.0  0.36978  0.43040  0.72134  1.0000
  C   C1265     1.0  0.28163  0.35498  0.80595  1.0000
  C   C1266     1.0  0.31981  0.36981  0.81499  1.0000
  C   C1267     1.0  0.31808  0.41373  0.83933  1.0000
  C   C1268     1.0  0.33029  0.42401  0.88252  1.0000
  C   C1269     1.0  0.33344  0.35956  0.85725  1.0000
  C   C1270     1.0  0.38610  0.37833  0.86327  1.0000
  C   C1271     1.0  0.35254  0.41373  0.78971  1.0000
  C   C1272     1.0  0.37327  0.42458  0.83655  1.0000
  C   C1273     1.0  0.29336  0.36817  0.89105  1.0000
  C   C1274     1.0  0.33680  0.39194  0.90735  1.0000
  C   C1275     1.0  0.28746  0.40540  0.93515  1.0000
  C   C1276     1.0  0.31333  0.43146  0.97655  1.0000
  C   C1277     1.0  0.36322  0.33756  0.96126  1.0000
  C   C1278     1.0  0.36939  0.36802  0.96994  1.0000
  C   C1279     1.0  0.36373  0.39160  0.90326  1.0000
  C   C1280     1.0  0.35985  0.40714  0.92934  1.0000
  C   C1281     1.0  0.39788  0.07081  0.99678  1.0000
  C   C1282     1.0  0.40456  0.09264  0.02918  1.0000
  C   C1283     1.0  0.39845  0.11144  0.06298  1.0000
  C   C1284     1.0  0.43419  0.11645  0.06989  1.0000
  C   C1285     1.0  0.45183  0.45644  0.05011  1.0000
  C   C1286     1.0  0.47224  0.06354  0.08100  1.0000
  C   C1287     1.0  0.44742  0.08854  0.01611  1.0000
  C   C1288     1.0  0.46972  0.13585  0.01391  1.0000
  C   C1289     1.0  0.40027  0.45407  0.11838  1.0000
  C   C1290     1.0  0.40754  0.08559  0.12171  1.0000
  C   C1291     1.0  0.40564  0.10677  0.14322  1.0000
  C   C1292     1.0  0.43243  0.12969  0.18417  1.0000
  C   C1293     1.0  0.45390  0.45024  0.15703  1.0000
  C   C1294     1.0  0.45307  0.07425  0.17899  1.0000
  C   C1295     1.0  0.46291  0.09789  0.08754  1.0000
  C   C1296     1.0  0.48848  0.14467  0.12905  1.0000
  C   C1297     1.0  0.40030  0.44809  0.20438  1.0000
  C   C1298     1.0  0.41619  0.06277  0.19531  1.0000
  C   C1299     1.0  0.40496  0.10803  0.22415  1.0000
  C   C1300     1.0  0.41469  0.11926  0.26158  1.0000
  C   C1301     1.0  0.43075  0.05787  0.24602  1.0000
  C   C1302     1.0  0.46589  0.45023  0.29060  1.0000
  C   C1303     1.0  0.44338  0.11986  0.20174  1.0000
  C   C1304     1.0  0.46924  0.12365  0.22525  1.0000
  C   C1305     1.0  0.40837  0.44860  0.30638  1.0000
  C   C1306     1.0  0.40756  0.07964  0.33440  1.0000
  C   C1307     1.0  0.41935  0.13578  0.34680  1.0000
  C   C1308     1.0  0.41705  0.11909  0.36079  1.0000
  C   C1309     1.0  0.43453  0.06548  0.35151  1.0000
  C   C1310     1.0  0.48206  0.07232  0.37958  1.0000
  C   C1311     1.0  0.45170  0.11409  0.29803  1.0000
  C   C1312     1.0  0.47436  0.12475  0.33503  1.0000
  C   C1313     1.0  0.39690  0.44873  0.37782  1.0000
  C   C1314     1.0  0.43175  0.07191  0.42618  1.0000
  C   C1315     1.0  0.39815  0.12354  0.44347  1.0000
  C   C1316     1.0  0.42537  0.14954  0.46988  1.0000
  C   C1317     1.0  0.45197  0.44552  0.46068  1.0000
  C   C1318     1.0  0.48157  0.07949  0.48681  1.0000
  C   C1319     1.0  0.45176  0.12167  0.37648  1.0000
  C   C1320     1.0  0.48727  0.13148  0.44629  1.0000
  C   C1321     1.0  0.41166  0.06341  0.51421  1.0000
  C   C1322     1.0  0.41307  0.08603  0.53097  1.0000
  C   C1323     1.0  0.38068  0.10614  0.56208  1.0000
  C   C1324     1.0  0.43077  0.13119  0.58753  1.0000
  C   C1325     1.0  0.45038  0.06347  0.53447  1.0000
  C   C1326     1.0  0.47887  0.08380  0.55521  1.0000
  C   C1327     1.0  0.43475  0.11830  0.49660  1.0000
  C   C1328     1.0  0.48890  0.14294  0.51730  1.0000
  C   C1329     1.0  0.38679  0.45588  0.59703  1.0000
  C   C1330     1.0  0.41379  0.08311  0.63142  1.0000
  C   C1331     1.0  0.42113  0.10459  0.64900  1.0000
  C   C1332     1.0  0.44074  0.14747  0.67369  1.0000
  C   C1333     1.0  0.44514  0.45075  0.65792  1.0000
  C   C1334     1.0  0.47168  0.07422  0.67305  1.0000
  C   C1335     1.0  0.45700  0.10944  0.60476  1.0000
  C   C1336     1.0  0.48974  0.12939  0.61850  1.0000
  C   C1337     1.0  0.42344  0.45204  0.70232  1.0000
  C   C1338     1.0  0.40568  0.08555  0.72570  1.0000
  C   C1339     1.0  0.42313  0.09364  0.72409  1.0000
  C   C1340     1.0  0.41321  0.12252  0.75913  1.0000
  C   C1341     1.0  0.45641  0.06233  0.74159  1.0000
  C   C1342     1.0  0.47880  0.07742  0.77610  1.0000
  C   C1343     1.0  0.44563  0.11861  0.69703  1.0000
  C   C1344     1.0  0.47635  0.13998  0.72258  1.0000
  C   C1345     1.0  0.39900  0.07458  0.80891  1.0000
  C   C1346     1.0  0.43269  0.07656  0.83690  1.0000
  C   C1347     1.0  0.40948  0.11032  0.85468  1.0000
  C   C1348     1.0  0.42264  0.14953  0.86608  1.0000
  C   C1349     1.0  0.45783  0.45129  0.84304  1.0000
  C   C1350     1.0  0.47488  0.08612  0.88211  1.0000
  C   C1351     1.0  0.44918  0.10520  0.81974  1.0000
  C   C1352     1.0  0.46591  0.12932  0.83179  1.0000
  C   C1353     1.0  0.39713  0.06355  0.88495  1.0000
  C   C1354     1.0  0.42408  0.07354  0.93033  1.0000
  C   C1355     1.0  0.39390  0.12108  0.94998  1.0000
  C   C1356     1.0  0.43617  0.13396  0.99427  1.0000
  C   C1357     1.0  0.44388  0.44763  0.95470  1.0000
  C   C1358     1.0  0.45794  0.07521  0.96568  1.0000
  C   C1359     1.0  0.44646  0.10013  0.88161  1.0000
  C   C1360     1.0  0.46082  0.13685  0.93510  1.0000
  C   C1361     1.0  0.38771  0.15386  0.00745  1.0000
  C   C1362     1.0  0.42737  0.19822  0.03663  1.0000
  C   C1363     1.0  0.38507  0.21555  0.05474  1.0000
  C   C1364     1.0  0.43069  0.24509  0.08796  1.0000
  C   C1365     1.0  0.45378  0.15500  0.04710  1.0000
  C   C1366     1.0  0.48046  0.18141  0.08944  1.0000
  C   C1367     1.0  0.45243  0.20148  0.99583  1.0000
  C   C1368     1.0  0.48779  0.24582  0.01115  1.0000
  C   C1369     1.0  0.37666  0.16286  0.09644  1.0000
  C   C1370     1.0  0.41604  0.16453  0.12955  1.0000
  C   C1371     1.0  0.40197  0.21137  0.13008  1.0000
  C   C1372     1.0  0.42857  0.22776  0.17332  1.0000
  C   C1373     1.0  0.44106  0.13257  0.15163  1.0000
  C   C1374     1.0  0.47319  0.18201  0.18571  1.0000
  C   C1375     1.0  0.44750  0.19536  0.09971  1.0000
  C   C1376     1.0  0.47779  0.23114  0.12666  1.0000
  C   C1377     1.0  0.39968  0.15767  0.18693  1.0000
  C   C1378     1.0  0.42025  0.18130  0.22192  1.0000
  C   C1379     1.0  0.39446  0.20956  0.22890  1.0000
  C   C1380     1.0  0.41433  0.24479  0.26614  1.0000
  C   C1381     1.0  0.45315  0.15772  0.24162  1.0000
  C   C1382     1.0  0.48264  0.18352  0.27199  1.0000
  C   C1383     1.0  0.45984  0.20912  0.19449  1.0000
  C   C1384     1.0  0.46882  0.25909  0.24280  1.0000
  C   C1385     1.0  0.40351  0.13558  0.30027  1.0000
  C   C1386     1.0  0.41245  0.19106  0.32930  1.0000
  C   C1387     1.0  0.40186  0.21969  0.33173  1.0000
  C   C1388     1.0  0.43732  0.23498  0.36376  1.0000
  C   C1389     1.0  0.45881  0.16253  0.35971  1.0000
  C   C1390     1.0  0.47533  0.17739  0.36907  1.0000
  C   C1391     1.0  0.46870  0.21215  0.30338  1.0000
  C   C1392     1.0  0.46847  0.24114  0.33548  1.0000
  C   C1393     1.0  0.37850  0.17144  0.36919  1.0000
  C   C1394     1.0  0.41543  0.17218  0.43620  1.0000
  C   C1395     1.0  0.40870  0.19947  0.45667  1.0000
  C   C1396     1.0  0.41878  0.23008  0.45026  1.0000
  C   C1397     1.0  0.45672  0.14627  0.45375  1.0000
  C   C1398     1.0  0.48238  0.17531  0.45952  1.0000
  C   C1399     1.0  0.45024  0.21821  0.40554  1.0000
  C   C1400     1.0  0.47132  0.24143  0.42123  1.0000
  C   C1401     1.0  0.39820  0.16026  0.50454  1.0000
  C   C1402     1.0  0.40885  0.18567  0.52749  1.0000
  C   C1403     1.0  0.39165  0.17963  0.54266  1.0000
  C   C1404     1.0  0.43818  0.25587  0.58343  1.0000
  C   C1405     1.0  0.46362  0.15808  0.55224  1.0000
  C   C1406     1.0  0.47919  0.16900  0.57459  1.0000
  C   C1407     1.0  0.45337  0.20724  0.50101  1.0000
  C   C1408     1.0  0.47262  0.22919  0.52790  1.0000
  C   C1409     1.0  0.39732  0.16339  0.60399  1.0000
  C   C1410     1.0  0.41521  0.18716  0.62772  1.0000
  C   C1411     1.0  0.39199  0.20265  0.65661  1.0000
  C   C1412     1.0  0.41012  0.23938  0.68942  1.0000
  C   C1413     1.0  0.44495  0.16980  0.65220  1.0000
  C   C1414     1.0  0.47323  0.18814  0.67227  1.0000
  C   C1415     1.0  0.44858  0.18674  0.61270  1.0000
  C   C1416     1.0  0.46446  0.22173  0.62955  1.0000
  C   C1417     1.0  0.39789  0.14733  0.70144  1.0000
  C   C1418     1.0  0.41912  0.17976  0.72539  1.0000
  C   C1419     1.0  0.39829  0.18750  0.75342  1.0000
  C   C1420     1.0  0.41945  0.23570  0.76737  1.0000
  C   C1421     1.0  0.44734  0.16669  0.73412  1.0000
  C   C1422     1.0  0.45753  0.17549  0.77651  1.0000
  C   C1423     1.0  0.45058  0.21256  0.69685  1.0000
  C   C1424     1.0  0.48574  0.21941  0.72729  1.0000
  C   C1425     1.0  0.41418  0.15889  0.78926  1.0000
  C   C1426     1.0  0.42570  0.17301  0.81982  1.0000
  C   C1427     1.0  0.39079  0.19579  0.83315  1.0000
  C   C1428     1.0  0.43720  0.24299  0.86945  1.0000
  C   C1429     1.0  0.42946  0.16523  0.83126  1.0000
  C   C1430     1.0  0.46898  0.18735  0.86940  1.0000
  C   C1431     1.0  0.46252  0.20325  0.79529  1.0000
  C   C1432     1.0  0.47198  0.23514  0.81748  1.0000
  C   C1433     1.0  0.38740  0.14572  0.89752  1.0000
  C   C1434     1.0  0.41245  0.16053  0.92612  1.0000
  C   C1435     1.0  0.40640  0.19963  0.94981  1.0000
  C   C1436     1.0  0.42130  0.22765  0.96145  1.0000
  C   C1437     1.0  0.44200  0.15185  0.95026  1.0000
  C   C1438     1.0  0.47225  0.20568  0.97368  1.0000
  C   C1439     1.0  0.46467  0.21889  0.89087  1.0000
  C   C1440     1.0  0.46245  0.24895  0.90976  1.0000
  C   C1441     1.0  0.38392  0.26683  0.99915  1.0000
  C   C1442     1.0  0.42718  0.28133  0.01690  1.0000
  C   C1443     1.0  0.38760  0.31995  0.05565  1.0000
  C   C1444     1.0  0.43136  0.31439  0.07401  1.0000
  C   C1445     1.0  0.45010  0.26497  0.05963  1.0000
  C   C1446     1.0  0.46891  0.28138  0.07751  1.0000
  C   C1447     1.0  0.45854  0.30393  0.97691  1.0000
  C   C1448     1.0  0.48431  0.31611  0.01458  1.0000
  C   C1449     1.0  0.40344  0.26008  0.13084  1.0000
  C   C1450     1.0  0.42708  0.30026  0.11853  1.0000
  C   C1451     1.0  0.41194  0.29748  0.15674  1.0000
  C   C1452     1.0  0.41003  0.32105  0.16782  1.0000
  C   C1453     1.0  0.44523  0.23871  0.13519  1.0000
  C   C1454     1.0  0.47532  0.28874  0.16272  1.0000
  C   C1455     1.0  0.46634  0.31013  0.10196  1.0000
  C   C1456     1.0  0.46956  0.34313  0.12336  1.0000
  C   C1457     1.0  0.38313  0.27750  0.20689  1.0000
  C   C1458     1.0  0.42854  0.25201  0.21715  1.0000
  C   C1459     1.0  0.39696  0.31404  0.25554  1.0000
  C   C1460     1.0  0.41760  0.32960  0.25254  1.0000
  C   C1461     1.0  0.44727  0.24909  0.24882  1.0000
  C   C1462     1.0  0.50308  0.29479  0.28673  1.0000
  C   C1463     1.0  0.45568  0.30405  0.19964  1.0000
  C   C1464     1.0  0.48898  0.31473  0.22392  1.0000
  C   C1465     1.0  0.39718  0.27157  0.31103  1.0000
  C   C1466     1.0  0.41607  0.28969  0.32416  1.0000
  C   C1467     1.0  0.39269  0.30548  0.34206  1.0000
  C   C1468     1.0  0.40997  0.31095  0.36275  1.0000
  C   C1469     1.0  0.43978  0.25961  0.35189  1.0000
  C   C1470     1.0  0.46501  0.27908  0.37522  1.0000
  C   C1471     1.0  0.45773  0.30496  0.29819  1.0000
  C   C1472     1.0  0.45848  0.32525  0.29855  1.0000
  C   C1473     1.0  0.42373  0.25770  0.41319  1.0000
  C   C1474     1.0  0.42271  0.29522  0.42630  1.0000
  C   C1475     1.0  0.41039  0.30808  0.45952  1.0000
  C   C1476     1.0  0.42331  0.32594  0.45656  1.0000
  C   C1477     1.0  0.46029  0.25805  0.44706  1.0000
  C   C1478     1.0  0.48332  0.27909  0.47057  1.0000
  C   C1479     1.0  0.46152  0.30073  0.39597  1.0000
  C   C1480     1.0  0.47550  0.31435  0.42292  1.0000
  C   C1481     1.0  0.38178  0.26231  0.49418  1.0000
  C   C1482     1.0  0.41633  0.26483  0.52648  1.0000
  C   C1483     1.0  0.40547  0.31940  0.54236  1.0000
  C   C1484     1.0  0.41894  0.33028  0.58805  1.0000
  C   C1485     1.0  0.44130  0.27583  0.56485  1.0000
  C   C1486     1.0  0.49653  0.29649  0.58899  1.0000
  C   C1487     1.0  0.45070  0.31414  0.51314  1.0000
  C   C1488     1.0  0.49510  0.32802  0.51285  1.0000
  C   C1489     1.0  0.40960  0.26164  0.58565  1.0000
  C   C1490     1.0  0.42465  0.28284  0.64106  1.0000
  C   C1491     1.0  0.39416  0.31369  0.64174  1.0000
  C   C1492     1.0  0.42424  0.33760  0.67770  1.0000
  C   C1493     1.0  0.45491  0.26257  0.65533  1.0000
  C   C1494     1.0  0.47997  0.28777  0.69257  1.0000
  C   C1495     1.0  0.43358  0.30824  0.60493  1.0000
  C   C1496     1.0  0.47921  0.33933  0.64028  1.0000
  C   C1497     1.0  0.38120  0.25347  0.70605  1.0000
  C   C1498     1.0  0.44788  0.27901  0.72653  1.0000
  C   C1499     1.0  0.39771  0.31788  0.73082  1.0000
  C   C1500     1.0  0.43209  0.33421  0.76789  1.0000
  C   C1501     1.0  0.46531  0.26338  0.71636  1.0000
  C   C1502     1.0  0.47846  0.29434  0.77906  1.0000
  C   C1503     1.0  0.43824  0.31058  0.70905  1.0000
  C   C1504     1.0  0.47583  0.32599  0.72384  1.0000
  C   C1505     1.0  0.40278  0.26992  0.80168  1.0000
  C   C1506     1.0  0.41582  0.26599  0.81661  1.0000
  C   C1507     1.0  0.40682  0.31270  0.84204  1.0000
  C   C1508     1.0  0.40865  0.34697  0.86181  1.0000
  C   C1509     1.0  0.44465  0.25311  0.85277  1.0000
  C   C1510     1.0  0.48844  0.29510  0.86094  1.0000
  C   C1511     1.0  0.45340  0.31116  0.79801  1.0000
  C   C1512     1.0  0.46560  0.32413  0.83003  1.0000
  C   C1513     1.0  0.40103  0.24401  0.91232  1.0000
  C   C1514     1.0  0.41931  0.29251  0.91932  1.0000
  C   C1515     1.0  0.39309  0.28195  0.93726  1.0000
  C   C1516     1.0  0.45005  0.34398  0.98428  1.0000
  C   C1517     1.0  0.44657  0.24860  0.96111  1.0000
  C   C1518     1.0  0.47936  0.28060  0.96714  1.0000
  C   C1519     1.0  0.42980  0.30562  0.89481  1.0000
  C   C1520     1.0  0.46568  0.31203  0.93640  1.0000
  C   C1521     1.0  0.40340  0.34872  0.98454  1.0000
  C   C1522     1.0  0.43195  0.37074  0.00054  1.0000
  C   C1523     1.0  0.40160  0.40105  0.03700  1.0000
  C   C1524     1.0  0.41983  0.43186  0.06394  1.0000
  C   C1525     1.0  0.43490  0.35069  0.04927  1.0000
  C   C1526     1.0  0.48219  0.37562  0.06819  1.0000
  C   C1527     1.0  0.42248  0.41980  0.99949  1.0000
  C   C1528     1.0  0.47562  0.43942  0.02691  1.0000
  C   C1529     1.0  0.39917  0.33421  0.09287  1.0000
  C   C1530     1.0  0.42569  0.38905  0.11947  1.0000
  C   C1531     1.0  0.38363  0.40382  0.14771  1.0000
  C   C1532     1.0  0.43189  0.44031  0.16942  1.0000
  C   C1533     1.0  0.47001  0.36912  0.14428  1.0000
  C   C1534     1.0  0.46408  0.37476  0.18170  1.0000
  C   C1535     1.0  0.44338  0.40873  0.09798  1.0000
  C   C1536     1.0  0.46907  0.44030  0.12956  1.0000
  C   C1537     1.0  0.39657  0.36661  0.22105  1.0000
  C   C1538     1.0  0.42017  0.37520  0.22251  1.0000
  C   C1539     1.0  0.38509  0.41174  0.26081  1.0000
  C   C1540     1.0  0.42271  0.43094  0.26004  1.0000
  C   C1541     1.0  0.46339  0.34310  0.24805  1.0000
  C   C1542     1.0  0.47413  0.38585  0.27492  1.0000
  C   C1543     1.0  0.44410  0.41152  0.18613  1.0000
  C   C1544     1.0  0.46919  0.42878  0.21800  1.0000
  C   C1545     1.0  0.40146  0.34847  0.30330  1.0000
  C   C1546     1.0  0.43262  0.38500  0.31549  1.0000
  C   C1547     1.0  0.39957  0.41451  0.34944  1.0000
  C   C1548     1.0  0.43010  0.44839  0.39144  1.0000
  C   C1549     1.0  0.46530  0.36694  0.33629  1.0000
  C   C1550     1.0  0.48611  0.39191  0.38599  1.0000
  C   C1551     1.0  0.46714  0.41108  0.30325  1.0000
  C   C1552     1.0  0.47780  0.43296  0.29928  1.0000
  C   C1553     1.0  0.39299  0.36185  0.39349  1.0000
  C   C1554     1.0  0.41345  0.37686  0.42610  1.0000
  C   C1555     1.0  0.39042  0.42398  0.44416  1.0000
  C   C1556     1.0  0.43459  0.43218  0.48292  1.0000
  C   C1557     1.0  0.44281  0.36876  0.44822  1.0000
  C   C1558     1.0  0.47144  0.39122  0.48182  1.0000
  C   C1559     1.0  0.44014  0.39512  0.42187  1.0000
  C   C1560     1.0  0.47407  0.42065  0.42965  1.0000
  C   C1561     1.0  0.40184  0.36625  0.50057  1.0000
  C   C1562     1.0  0.42131  0.38507  0.54017  1.0000
  C   C1563     1.0  0.39906  0.40470  0.55030  1.0000
  C   C1564     1.0  0.42762  0.42847  0.57542  1.0000
  C   C1565     1.0  0.44174  0.34814  0.54591  1.0000
  C   C1566     1.0  0.48627  0.39408  0.58077  1.0000
  C   C1567     1.0  0.44827  0.40700  0.48204  1.0000
  C   C1568     1.0  0.48772  0.42370  0.51463  1.0000
  C   C1569     1.0  0.39774  0.35924  0.59906  1.0000
  C   C1570     1.0  0.40544  0.39519  0.62060  1.0000
  C   C1571     1.0  0.39069  0.40699  0.66147  1.0000
  C   C1572     1.0  0.43742  0.43760  0.67481  1.0000
  C   C1573     1.0  0.45704  0.35481  0.65153  1.0000
  C   C1574     1.0  0.46479  0.40220  0.66826  1.0000
  C   C1575     1.0  0.44944  0.40347  0.60565  1.0000
  C   C1576     1.0  0.47532  0.42116  0.61396  1.0000
  C   C1577     1.0  0.39620  0.37924  0.72418  1.0000
  C   C1578     1.0  0.42856  0.38098  0.71581  1.0000
  C   C1579     1.0  0.39988  0.38921  0.73678  1.0000
  C   C1580     1.0  0.42485  0.44141  0.77853  1.0000
  C   C1581     1.0  0.44084  0.35752  0.74456  1.0000
  C   C1582     1.0  0.46867  0.38410  0.76314  1.0000
  C   C1583     1.0  0.45085  0.40218  0.69704  1.0000
  C   C1584     1.0  0.46391  0.43980  0.72329  1.0000
  C   C1585     1.0  0.41074  0.35519  0.79192  1.0000
  C   C1586     1.0  0.43723  0.36845  0.82531  1.0000
  C   C1587     1.0  0.39122  0.39768  0.86024  1.0000
  C   C1588     1.0  0.43414  0.43319  0.87471  1.0000
  C   C1589     1.0  0.43730  0.33455  0.84272  1.0000
  C   C1590     1.0  0.48322  0.39049  0.89901  1.0000
  C   C1591     1.0  0.44594  0.40497  0.79820  1.0000
  C   C1592     1.0  0.46735  0.44437  0.82458  1.0000
  C   C1593     1.0  0.39507  0.35536  0.90733  1.0000
  C   C1594     1.0  0.40989  0.38200  0.92024  1.0000
  C   C1595     1.0  0.41475  0.41091  0.94379  1.0000
  C   C1596     1.0  0.40378  0.44377  0.96220  1.0000
  C   C1597     1.0  0.45377  0.37460  0.94018  1.0000
  C   C1598     1.0  0.48650  0.36145  0.97216  1.0000
  C   C1599     1.0  0.44923  0.42064  0.91448  1.0000
  C   C1600     1.0  0.47634  0.42990  0.93819  1.0000
  C   C1601     1.0  0.49963  0.06526  0.02399  1.0000
  C   C1602     1.0  0.52124  0.07765  0.01861  1.0000
  C   C1603     1.0  0.49424  0.11983  0.04372  1.0000
  C   C1604     1.0  0.52670  0.13888  0.05509  1.0000
  C   C1605     1.0  0.57423  0.07011  0.05474  1.0000
  C   C1606     1.0  0.58611  0.08277  0.07028  1.0000
  C   C1607     1.0  0.55400  0.09691  0.99399  1.0000
  C   C1608     1.0  0.58108  0.14323  0.01681  1.0000
  C   C1609     1.0  0.50196  0.44250  0.11041  1.0000
  C   C1610     1.0  0.51388  0.08244  0.12540  1.0000
  C   C1611     1.0  0.50165  0.09184  0.14239  1.0000
  C   C1612     1.0  0.52545  0.13108  0.16248  1.0000
  C   C1613     1.0  0.54067  0.44943  0.16004  1.0000
  C   C1614     1.0  0.59073  0.06338  0.16732  1.0000
  C   C1615     1.0  0.53768  0.11988  0.09245  1.0000
  C   C1616     1.0  0.59494  0.13073  0.12935  1.0000
  C   C1617     1.0  0.50675  0.06324  0.19620  1.0000
  C   C1618     1.0  0.55300  0.08193  0.21903  1.0000
  C   C1619     1.0  0.50334  0.11395  0.26018  1.0000
  C   C1620     1.0  0.50654  0.12550  0.26152  1.0000
  C   C1621     1.0  0.56151  0.06782  0.25705  1.0000
  C   C1622     1.0  0.56290  0.08184  0.26837  1.0000
  C   C1623     1.0  0.53463  0.09693  0.20945  1.0000
  C   C1624     1.0  0.57759  0.14618  0.23064  1.0000
  C   C1625     1.0  0.51520  0.06621  0.29971  1.0000
  C   C1626     1.0  0.53470  0.08435  0.32033  1.0000
  C   C1627     1.0  0.50763  0.11838  0.33349  1.0000
  C   C1628     1.0  0.53985  0.13732  0.40950  1.0000
  C   C1629     1.0  0.54357  0.06399  0.35080  1.0000
  C   C1630     1.0  0.55571  0.08569  0.38771  1.0000
  C   C1631     1.0  0.54301  0.09859  0.29066  1.0000
  C   C1632     1.0  0.57132  0.12451  0.31991  1.0000
  C   C1633     1.0  0.51124  0.09141  0.39177  1.0000
  C   C1634     1.0  0.53609  0.08559  0.43607  1.0000
  C   C1635     1.0  0.50739  0.12817  0.46005  1.0000
  C   C1636     1.0  0.54672  0.13016  0.45472  1.0000
  C   C1637     1.0  0.54990  0.44880  0.45401  1.0000
  C   C1638     1.0  0.56634  0.07184  0.46684  1.0000
  C   C1639     1.0  0.54655  0.09933  0.41061  1.0000
  C   C1640     1.0  0.55502  0.15406  0.42567  1.0000
  C   C1641     1.0  0.51318  0.05789  0.46657  1.0000
  C   C1642     1.0  0.52448  0.09902  0.51217  1.0000
  C   C1643     1.0  0.49486  0.11777  0.54353  1.0000
  C   C1644     1.0  0.51745  0.11842  0.57785  1.0000
  C   C1645     1.0  0.55299  0.07087  0.55734  1.0000
  C   C1646     1.0  0.59833  0.08158  0.56464  1.0000
  C   C1647     1.0  0.54086  0.09669  0.49439  1.0000
  C   C1648     1.0  0.56250  0.14214  0.54169  1.0000
  C   C1649     1.0  0.51293  0.08375  0.61183  1.0000
  C   C1650     1.0  0.52337  0.08759  0.61811  1.0000
  C   C1651     1.0  0.51141  0.09368  0.66912  1.0000
  C   C1652     1.0  0.54680  0.11366  0.67556  1.0000
  C   C1653     1.0  0.54625  0.06643  0.64632  1.0000
  C   C1654     1.0  0.57271  0.07379  0.67755  1.0000
  C   C1655     1.0  0.53004  0.10130  0.60841  1.0000
  C   C1656     1.0  0.59659  0.11432  0.61673  1.0000
  C   C1657     1.0  0.49892  0.06587  0.70421  1.0000
  C   C1658     1.0  0.53415  0.07558  0.73292  1.0000
  C   C1659     1.0  0.49707  0.11689  0.76068  1.0000
  C   C1660     1.0  0.52076  0.13411  0.78412  1.0000
  C   C1661     1.0  0.54981  0.45643  0.75193  1.0000
  C   C1662     1.0  0.58269  0.09106  0.76357  1.0000
  C   C1663     1.0  0.55625  0.11096  0.69574  1.0000
  C   C1664     1.0  0.56295  0.14159  0.72298  1.0000
  C   C1665     1.0  0.51122  0.06628  0.79572  1.0000
  C   C1666     1.0  0.51764  0.09606  0.81633  1.0000
  C   C1667     1.0  0.50330  0.10715  0.85415  1.0000
  C   C1668     1.0  0.53577  0.14282  0.87458  1.0000
  C   C1669     1.0  0.56464  0.44541  0.85880  1.0000
  C   C1670     1.0  0.56197  0.06862  0.87532  1.0000
  C   C1671     1.0  0.55176  0.08723  0.80744  1.0000
  C   C1672     1.0  0.59514  0.14600  0.81504  1.0000
  C   C1673     1.0  0.48799  0.43900  0.89396  1.0000
  C   C1674     1.0  0.51065  0.09986  0.91099  1.0000
  C   C1675     1.0  0.51292  0.11155  0.96058  1.0000
  C   C1676     1.0  0.52434  0.12908  0.96572  1.0000
  C   C1677     1.0  0.52272  0.45062  0.94361  1.0000
  C   C1678     1.0  0.57101  0.07792  0.96536  1.0000
  C   C1679     1.0  0.55434  0.09751  0.90346  1.0000
  C   C1680     1.0  0.56950  0.12194  0.92978  1.0000
  C   C1681     1.0  0.49798  0.15168  0.99755  1.0000
  C   C1682     1.0  0.53033  0.18885  0.02137  1.0000
  C   C1683     1.0  0.48573  0.21081  0.04788  1.0000
  C   C1684     1.0  0.51461  0.22820  0.07960  1.0000
  C   C1685     1.0  0.55134  0.17694  0.05697  1.0000
  C   C1686     1.0  0.56288  0.15387  0.08436  1.0000
  C   C1687     1.0  0.57107  0.19528  0.99493  1.0000
  C   C1688     1.0  0.56447  0.23791  0.00172  1.0000
  C   C1689     1.0  0.50063  0.14636  0.09173  1.0000
  C   C1690     1.0  0.52224  0.17054  0.12678  1.0000
  C   C1691     1.0  0.50764  0.20469  0.13397  1.0000
  C   C1692     1.0  0.53619  0.22400  0.18944  1.0000
  C   C1693     1.0  0.53716  0.16844  0.15281  1.0000
  C   C1694     1.0  0.55094  0.16881  0.19216  1.0000
  C   C1695     1.0  0.57846  0.21053  0.09529  1.0000
  C   C1696     1.0  0.55683  0.21812  0.11784  1.0000
  C   C1697     1.0  0.49341  0.14284  0.19890  1.0000
  C   C1698     1.0  0.52653  0.15957  0.22186  1.0000
  C   C1699     1.0  0.49101  0.19860  0.24186  1.0000
  C   C1700     1.0  0.52853  0.23066  0.28021  1.0000
  C   C1701     1.0  0.56117  0.14269  0.24979  1.0000
  C   C1702     1.0  0.56185  0.16544  0.26716  1.0000
  C   C1703     1.0  0.54160  0.19114  0.19927  1.0000
  C   C1704     1.0  0.58002  0.22775  0.22562  1.0000
  C   C1705     1.0  0.50116  0.16267  0.29971  1.0000
  C   C1706     1.0  0.50862  0.17780  0.33661  1.0000
  C   C1707     1.0  0.50235  0.19858  0.36950  1.0000
  C   C1708     1.0  0.53319  0.23629  0.38605  1.0000
  C   C1709     1.0  0.55138  0.16845  0.34941  1.0000
  C   C1710     1.0  0.59116  0.18284  0.35788  1.0000
  C   C1711     1.0  0.54155  0.21514  0.30552  1.0000
  C   C1712     1.0  0.58923  0.20296  0.33107  1.0000
  C   C1713     1.0  0.48989  0.14888  0.39620  1.0000
  C   C1714     1.0  0.52499  0.16880  0.42218  1.0000
  C   C1715     1.0  0.49737  0.21471  0.44286  1.0000
  C   C1716     1.0  0.53092  0.22284  0.46401  1.0000
  C   C1717     1.0  0.54543  0.13065  0.45549  1.0000
  C   C1718     1.0  0.57093  0.17826  0.45281  1.0000
  C   C1719     1.0  0.53981  0.22524  0.40739  1.0000
  C   C1720     1.0  0.56749  0.23329  0.41623  1.0000
  C   C1721     1.0  0.49302  0.14888  0.50587  1.0000
  C   C1722     1.0  0.53302  0.18912  0.53661  1.0000
  C   C1723     1.0  0.49842  0.21229  0.53652  1.0000
  C   C1724     1.0  0.51764  0.23940  0.55160  1.0000
  C   C1725     1.0  0.56656  0.15885  0.56158  1.0000
  C   C1726     1.0  0.57584  0.18301  0.57559  1.0000
  C   C1727     1.0  0.55113  0.20952  0.49508  1.0000
  C   C1728     1.0  0.57353  0.24225  0.52877  1.0000
  C   C1729     1.0  0.50481  0.17201  0.60774  1.0000
  C   C1730     1.0  0.54101  0.17048  0.60252  1.0000
  C   C1731     1.0  0.48974  0.19125  0.64426  1.0000
  C   C1732     1.0  0.53208  0.23897  0.66675  1.0000
  C   C1733     1.0  0.55220  0.15901  0.64759  1.0000
  C   C1734     1.0  0.56048  0.18889  0.67429  1.0000
  C   C1735     1.0  0.56334  0.19977  0.59548  1.0000
  C   C1736     1.0  0.57639  0.23610  0.64501  1.0000
  C   C1737     1.0  0.49717  0.17267  0.70591  1.0000
  C   C1738     1.0  0.52134  0.16757  0.73452  1.0000
  C   C1739     1.0  0.50333  0.21118  0.74905  1.0000
  C   C1740     1.0  0.52786  0.22643  0.77362  1.0000
  C   C1741     1.0  0.54551  0.16531  0.73290  1.0000
  C   C1742     1.0  0.58000  0.18057  0.78297  1.0000
  C   C1743     1.0  0.53993  0.20030  0.71369  1.0000
  C   C1744     1.0  0.56251  0.24986  0.75303  1.0000
  C   C1745     1.0  0.50436  0.14790  0.79984  1.0000
  C   C1746     1.0  0.52820  0.16506  0.82917  1.0000
  C   C1747     1.0  0.50398  0.20274  0.85387  1.0000
  C   C1748     1.0  0.52238  0.23691  0.87568  1.0000
  C   C1749     1.0  0.54168  0.13589  0.84449  1.0000
  C   C1750     1.0  0.57815  0.16921  0.86824  1.0000
  C   C1751     1.0  0.54735  0.21255  0.78778  1.0000
  C   C1752     1.0  0.58165  0.23419  0.82041  1.0000
  C   C1753     1.0  0.50257  0.14440  0.90167  1.0000
  C   C1754     1.0  0.51673  0.18254  0.91814  1.0000
  C   C1755     1.0  0.49867  0.21342  0.96490  1.0000
  C   C1756     1.0  0.50857  0.23909  0.98737  1.0000
  C   C1757     1.0  0.54226  0.16095  0.94538  1.0000
  C   C1758     1.0  0.59251  0.18468  0.99933  1.0000
  C   C1759     1.0  0.55106  0.18702  0.90034  1.0000
  C   C1760     1.0  0.56015  0.21387  0.94017  1.0000
  C   C1761     1.0  0.49446  0.24742  0.00925  1.0000
  C   C1762     1.0  0.52971  0.29751  0.02344  1.0000
  C   C1763     1.0  0.50472  0.31078  0.03815  1.0000
  C   C1764     1.0  0.51168  0.33658  0.05462  1.0000
  C   C1765     1.0  0.54227  0.25408  0.06091  1.0000
  C   C1766     1.0  0.56187  0.27538  0.09827  1.0000
  C   C1767     1.0  0.54309  0.28925  0.99802  1.0000
  C   C1768     1.0  0.57565  0.33593  0.01936  1.0000
  C   C1769     1.0  0.51452  0.26441  0.09932  1.0000
  C   C1770     1.0  0.51314  0.27978  0.11156  1.0000
  C   C1771     1.0  0.50376  0.32046  0.15690  1.0000
  C   C1772     1.0  0.52071  0.32924  0.16264  1.0000
  C   C1773     1.0  0.54362  0.26713  0.15648  1.0000
  C   C1774     1.0  0.57016  0.27132  0.16493  1.0000
  C   C1775     1.0  0.57316  0.32535  0.09931  1.0000
  C   C1776     1.0  0.57554  0.30775  0.13955  1.0000
  C   C1777     1.0  0.49132  0.26634  0.20459  1.0000
  C   C1778     1.0  0.53035  0.28340  0.21951  1.0000
  C   C1779     1.0  0.50095  0.32322  0.23968  1.0000
  C   C1780     1.0  0.52924  0.32399  0.26007  1.0000
  C   C1781     1.0  0.55632  0.26069  0.25381  1.0000
  C   C1782     1.0  0.59451  0.27641  0.27433  1.0000
  C   C1783     1.0  0.55484  0.31286  0.20874  1.0000
  C   C1784     1.0  0.59398  0.31651  0.23626  1.0000
  C   C1785     1.0  0.51791  0.28156  0.29937  1.0000
  C   C1786     1.0  0.50103  0.26349  0.33121  1.0000
  C   C1787     1.0  0.48758  0.28717  0.34597  1.0000
  C   C1788     1.0  0.53107  0.33763  0.38291  1.0000
  C   C1789     1.0  0.53878  0.25257  0.35795  1.0000
  C   C1790     1.0  0.56838  0.28970  0.36822  1.0000
  C   C1791     1.0  0.54351  0.31213  0.29925  1.0000
  C   C1792     1.0  0.55353  0.34978  0.33976  1.0000
  C   C1793     1.0  0.50206  0.25807  0.40603  1.0000
  C   C1794     1.0  0.53103  0.29417  0.42187  1.0000
  C   C1795     1.0  0.50835  0.31753  0.44513  1.0000
  C   C1796     1.0  0.51614  0.35790  0.46333  1.0000
  C   C1797     1.0  0.57015  0.26870  0.46639  1.0000
  C   C1798     1.0  0.57742  0.28252  0.48416  1.0000
  C   C1799     1.0  0.54158  0.30337  0.40919  1.0000
  C   C1800     1.0  0.59969  0.33849  0.43031  1.0000
  C   C1801     1.0  0.50767  0.27924  0.49178  1.0000
  C   C1802     1.0  0.51539  0.28436  0.51051  1.0000
  C   C1803     1.0  0.53378  0.31902  0.56083  1.0000
  C   C1804     1.0  0.52925  0.33587  0.56925  1.0000
  C   C1805     1.0  0.56200  0.25317  0.54644  1.0000
  C   C1806     1.0  0.57963  0.28617  0.59020  1.0000
  C   C1807     1.0  0.55652  0.30501  0.47636  1.0000
  C   C1808     1.0  0.58892  0.32409  0.53333  1.0000
  C   C1809     1.0  0.51459  0.24776  0.60403  1.0000
  C   C1810     1.0  0.50095  0.28235  0.63286  1.0000
  C   C1811     1.0  0.51914  0.31450  0.65541  1.0000
  C   C1812     1.0  0.51745  0.33435  0.67174  1.0000
  C   C1813     1.0  0.55583  0.25136  0.66547  1.0000
  C   C1814     1.0  0.56917  0.27637  0.66790  1.0000
  C   C1815     1.0  0.55249  0.31412  0.59471  1.0000
  C   C1816     1.0  0.56975  0.33924  0.62796  1.0000
  C   C1817     1.0  0.48396  0.23685  0.68701  1.0000
  C   C1818     1.0  0.51900  0.29714  0.73217  1.0000
  C   C1819     1.0  0.51585  0.30122  0.75351  1.0000
  C   C1820     1.0  0.50867  0.34265  0.77442  1.0000
  C   C1821     1.0  0.55949  0.25843  0.76003  1.0000
  C   C1822     1.0  0.59342  0.28735  0.79170  1.0000
  C   C1823     1.0  0.53109  0.30713  0.71069  1.0000
  C   C1824     1.0  0.58045  0.32626  0.71267  1.0000
  C   C1825     1.0  0.49236  0.25316  0.79073  1.0000
  C   C1826     1.0  0.51580  0.28472  0.80737  1.0000
  C   C1827     1.0  0.49091  0.30126  0.86128  1.0000
  C   C1828     1.0  0.54707  0.31754  0.90506  1.0000
  C   C1829     1.0  0.55930  0.24945  0.85664  1.0000
  C   C1830     1.0  0.58302  0.28173  0.86293  1.0000
  C   C1831     1.0  0.54492  0.30017  0.80860  1.0000
  C   C1832     1.0  0.58352  0.33880  0.80171  1.0000
  C   C1833     1.0  0.50602  0.24416  0.91738  1.0000
  C   C1834     1.0  0.51806  0.25443  0.92969  1.0000
  C   C1835     1.0  0.52211  0.30938  0.94132  1.0000
  C   C1836     1.0  0.53095  0.34163  0.97950  1.0000
  C   C1837     1.0  0.55942  0.26382  0.96414  1.0000
  C   C1838     1.0  0.57930  0.26140  0.99181  1.0000
  C   C1839     1.0  0.54693  0.31521  0.90645  1.0000
  C   C1840     1.0  0.57203  0.34327  0.90645  1.0000
  C   C1841     1.0  0.50410  0.34782  0.00087  1.0000
  C   C1842     1.0  0.54193  0.38989  0.02732  1.0000
  C   C1843     1.0  0.48693  0.41093  0.03624  1.0000
  C   C1844     1.0  0.51529  0.43061  0.07007  1.0000
  C   C1845     1.0  0.55049  0.34171  0.04076  1.0000
  C   C1846     1.0  0.55901  0.39002  0.08133  1.0000
  C   C1847     1.0  0.55959  0.39581  0.01160  1.0000
  C   C1848     1.0  0.57103  0.41738  0.02970  1.0000
  C   C1849     1.0  0.49384  0.37429  0.10845  1.0000
  C   C1850     1.0  0.51571  0.38650  0.11011  1.0000
  C   C1851     1.0  0.49448  0.40100  0.16902  1.0000
  C   C1852     1.0  0.53256  0.42864  0.17285  1.0000
  C   C1853     1.0  0.55725  0.35234  0.15903  1.0000
  C   C1854     1.0  0.58317  0.38105  0.17978  1.0000
  C   C1855     1.0  0.55003  0.42715  0.10121  1.0000
  C   C1856     1.0  0.55250  0.44879  0.13037  1.0000
  C   C1857     1.0  0.51967  0.36816  0.19446  1.0000
  C   C1858     1.0  0.53329  0.37604  0.22126  1.0000
  C   C1859     1.0  0.50288  0.41879  0.25630  1.0000
  C   C1860     1.0  0.54620  0.44308  0.27970  1.0000
  C   C1861     1.0  0.57012  0.33864  0.25292  1.0000
  C   C1862     1.0  0.56199  0.39277  0.26935  1.0000
  C   C1863     1.0  0.55765  0.40186  0.18879  1.0000
  C   C1864     1.0  0.61397  0.07053  0.23052  1.0000
  C   C1865     1.0  0.49715  0.34752  0.31436  1.0000
  C   C1866     1.0  0.51810  0.39370  0.31538  1.0000
  C   C1867     1.0  0.49950  0.38712  0.36078  1.0000
  C   C1868     1.0  0.50477  0.43335  0.36805  1.0000
  C   C1869     1.0  0.56680  0.35747  0.33870  1.0000
  C   C1870     1.0  0.59448  0.39288  0.38270  1.0000
  C   C1871     1.0  0.53495  0.42192  0.28091  1.0000
  C   C1872     1.0  0.57461  0.41602  0.33783  1.0000
  C   C1873     1.0  0.49396  0.33703  0.39709  1.0000
  C   C1874     1.0  0.54151  0.38489  0.40658  1.0000
  C   C1875     1.0  0.49335  0.42206  0.43992  1.0000
  C   C1876     1.0  0.51762  0.41902  0.47514  1.0000
  C   C1877     1.0  0.54574  0.34932  0.45982  1.0000
  C   C1878     1.0  0.57297  0.38365  0.47522  1.0000
  C   C1879     1.0  0.55023  0.41425  0.39068  1.0000
  C   C1880     1.0  0.56711  0.44624  0.41454  1.0000
  C   C1881     1.0  0.50958  0.35915  0.49866  1.0000
  C   C1882     1.0  0.53491  0.39355  0.52356  1.0000
  C   C1883     1.0  0.49015  0.41443  0.54760  1.0000
  C   C1884     1.0  0.50771  0.43315  0.57297  1.0000
  C   C1885     1.0  0.55126  0.36296  0.56773  1.0000
  C   C1886     1.0  0.56805  0.40604  0.55623  1.0000
  C   C1887     1.0  0.57185  0.41938  0.50782  1.0000
  C   C1888     1.0  0.57378  0.42032  0.51722  1.0000
  C   C1889     1.0  0.47818  0.37298  0.60748  1.0000
  C   C1890     1.0  0.51758  0.38913  0.62110  1.0000
  C   C1891     1.0  0.49300  0.41027  0.63195  1.0000
  C   C1892     1.0  0.52316  0.44878  0.66556  1.0000
  C   C1893     1.0  0.53557  0.35336  0.65523  1.0000
  C   C1894     1.0  0.57452  0.39025  0.67061  1.0000
  C   C1895     1.0  0.55921  0.40430  0.59462  1.0000
  C   C1896     1.0  0.57261  0.45473  0.62545  1.0000
  C   C1897     1.0  0.50546  0.36152  0.69062  1.0000
  C   C1898     1.0  0.50430  0.37375  0.72397  1.0000
  C   C1899     1.0  0.49424  0.42074  0.74838  1.0000
  C   C1900     1.0  0.53665  0.43433  0.77720  1.0000
  C   C1901     1.0  0.53800  0.36675  0.75729  1.0000
  C   C1902     1.0  0.56770  0.41411  0.77856  1.0000
  C   C1903     1.0  0.57372  0.40476  0.68613  1.0000
  C   C1904     1.0  0.57363  0.43476  0.74278  1.0000
  C   C1905     1.0  0.49885  0.35304  0.80393  1.0000
  C   C1906     1.0  0.54113  0.38072  0.82238  1.0000
  C   C1907     1.0  0.49122  0.39992  0.83928  1.0000
  C   C1908     1.0  0.49456  0.45632  0.86394  1.0000
  C   C1909     1.0  0.53284  0.35599  0.83040  1.0000
  C   C1910     1.0  0.57291  0.38346  0.88212  1.0000
  C   C1911     1.0  0.54514  0.39914  0.79524  1.0000
  C   C1912     1.0  0.58005  0.43513  0.82284  1.0000
  C   C1913     1.0  0.50173  0.35479  0.91121  1.0000
  C   C1914     1.0  0.52802  0.36193  0.92042  1.0000
  C   C1915     1.0  0.47469  0.41002  0.92921  1.0000
  C   C1916     1.0  0.52370  0.42246  0.99645  1.0000
  C   C1917     1.0  0.56218  0.35560  0.93517  1.0000
  C   C1918     1.0  0.59167  0.39005  0.98150  1.0000
  C   C1919     1.0  0.53811  0.40605  0.90124  1.0000
  C   C1920     1.0  0.56328  0.43273  0.92006  1.0000
  C   C1921     1.0  0.60833  0.45246  0.99411  1.0000
  C   C1922     1.0  0.60988  0.07674  0.02828  1.0000
  C   C1923     1.0  0.61636  0.09052  0.05604  1.0000
  C   C1924     1.0  0.62792  0.11154  0.08095  1.0000
  C   C1925     1.0  0.65616  0.06766  0.05390  1.0000
  C   C1926     1.0  0.66475  0.08203  0.07624  1.0000
  C   C1927     1.0  0.66036  0.10670  0.98763  1.0000
  C   C1928     1.0  0.67151  0.13057  0.02381  1.0000
  C   C1929     1.0  0.59241  0.06250  0.09114  1.0000
  C   C1930     1.0  0.62759  0.08545  0.14102  1.0000
  C   C1931     1.0  0.59617  0.11389  0.16285  1.0000
  C   C1932     1.0  0.64191  0.13875  0.16834  1.0000
  C   C1933     1.0  0.65358  0.44389  0.15755  1.0000
  C   C1934     1.0  0.67411  0.07227  0.17439  1.0000
  C   C1935     1.0  0.66052  0.10148  0.11026  1.0000
  C   C1936     1.0  0.67463  0.11885  0.12916  1.0000
  C   C1937     1.0  0.60559  0.43633  0.19413  1.0000
  C   C1938     1.0  0.63035  0.07487  0.22424  1.0000
  C   C1939     1.0  0.59350  0.10461  0.23642  1.0000
  C   C1940     1.0  0.64467  0.10915  0.28935  1.0000
  C   C1941     1.0  0.64858  0.44936  0.25089  1.0000
  C   C1942     1.0  0.67929  0.07805  0.28247  1.0000
  C   C1943     1.0  0.65492  0.09950  0.18382  1.0000
  C   C1944     1.0  0.66673  0.13729  0.20862  1.0000
  C   C1945     1.0  0.61499  0.06632  0.30323  1.0000
  C   C1946     1.0  0.63292  0.09554  0.31179  1.0000
  C   C1947     1.0  0.59275  0.13381  0.36007  1.0000
  C   C1948     1.0  0.61580  0.14857  0.38549  1.0000
  C   C1949     1.0  0.65031  0.06574  0.34626  1.0000
  C   C1950     1.0  0.68850  0.08172  0.36364  1.0000
  C   C1951     1.0  0.63315  0.08713  0.31092  1.0000
  C   C1952     1.0  0.68534  0.13387  0.33782  1.0000
  C   C1953     1.0  0.59649  0.07352  0.41238  1.0000
  C   C1954     1.0  0.63744  0.08141  0.42381  1.0000
  C   C1955     1.0  0.60882  0.09120  0.44454  1.0000
  C   C1956     1.0  0.63216  0.15026  0.47177  1.0000
  C   C1957     1.0  0.67964  0.44959  0.44343  1.0000
  C   C1958     1.0  0.67126  0.07613  0.48466  1.0000
  C   C1959     1.0  0.63323  0.11497  0.37925  1.0000
  C   C1960     1.0  0.68976  0.12032  0.42759  1.0000
  C   C1961     1.0  0.59454  0.05995  0.49834  1.0000
  C   C1962     1.0  0.63858  0.08109  0.52236  1.0000
  C   C1963     1.0  0.60821  0.09836  0.54868  1.0000
  C   C1964     1.0  0.64483  0.10963  0.58222  1.0000
  C   C1965     1.0  0.63859  0.43718  0.55845  1.0000
  C   C1966     1.0  0.69779  0.07676  0.57252  1.0000
  C   C1967     1.0  0.64976  0.11255  0.49455  1.0000
  C   C1968     1.0  0.67248  0.13358  0.51491  1.0000
  C   C1969     1.0  0.61843  0.07060  0.61269  1.0000
  C   C1970     1.0  0.61028  0.07971  0.64091  1.0000
  C   C1971     1.0  0.58319  0.11932  0.63891  1.0000
  C   C1972     1.0  0.64300  0.14479  0.66559  1.0000
  C   C1973     1.0  0.65620  0.43956  0.67307  1.0000
  C   C1974     1.0  0.65327  0.09708  0.67175  1.0000
  C   C1975     1.0  0.64611  0.09566  0.60579  1.0000
  C   C1976     1.0  0.67157  0.11542  0.63337  1.0000
  C   C1977     1.0  0.60381  0.45026  0.70067  1.0000
  C   C1978     1.0  0.62448  0.09235  0.71230  1.0000
  C   C1979     1.0  0.59380  0.11679  0.75284  1.0000
  C   C1980     1.0  0.63977  0.12217  0.75074  1.0000
  C   C1981     1.0  0.64086  0.45731  0.74633  1.0000
  C   C1982     1.0  0.67646  0.08919  0.76711  1.0000
  C   C1983     1.0  0.65198  0.12354  0.69685  1.0000
  C   C1984     1.0  0.68633  0.14012  0.71888  1.0000
  C   C1985     1.0  0.60082  0.45651  0.79067  1.0000
  C   C1986     1.0  0.61502  0.07159  0.81573  1.0000
  C   C1987     1.0  0.59320  0.09576  0.83391  1.0000
  C   C1988     1.0  0.60720  0.14261  0.85926  1.0000
  C   C1989     1.0  0.67097  0.45542  0.85304  1.0000
  C   C1990     1.0  0.69595  0.08998  0.88940  1.0000
  C   C1991     1.0  0.64662  0.11384  0.80457  1.0000
  C   C1992     1.0  0.66992  0.13411  0.82247  1.0000
  C   C1993     1.0  0.59825  0.45425  0.89168  1.0000
  C   C1994     1.0  0.62607  0.08158  0.91615  1.0000
  C   C1995     1.0  0.59495  0.11638  0.95103  1.0000
  C   C1996     1.0  0.61591  0.13148  0.98280  1.0000
  C   C1997     1.0  0.66200  0.44754  0.95845  1.0000
  C   C1998     1.0  0.67368  0.08026  0.97295  1.0000
  C   C1999     1.0  0.66359  0.10008  0.90754  1.0000
  C   C2000     1.0  0.67229  0.13191  0.92724  1.0000
  C   C2001     1.0  0.60715  0.11773  0.98591  1.0000
  C   C2002     1.0  0.63372  0.18153  0.99843  1.0000
  C   C2003     1.0  0.60500  0.19894  0.04802  1.0000
  C   C2004     1.0  0.63130  0.21851  0.08289  1.0000
  C   C2005     1.0  0.64592  0.15953  0.05432  1.0000
  C   C2006     1.0  0.64073  0.18666  0.06956  1.0000
  C   C2007     1.0  0.66424  0.21943  0.00241  1.0000
  C   C2008     1.0  0.67038  0.22903  0.04863  1.0000
  C   C2009     1.0  0.58720  0.17332  0.09461  1.0000
  C   C2010     1.0  0.63938  0.18136  0.14169  1.0000
  C   C2011     1.0  0.58753  0.19564  0.16108  1.0000
  C   C2012     1.0  0.63046  0.22429  0.18506  1.0000
  C   C2013     1.0  0.64970  0.17539  0.14557  1.0000
  C   C2014     1.0  0.67566  0.17503  0.16108  1.0000
  C   C2015     1.0  0.65060  0.20453  0.10500  1.0000
  C   C2016     1.0  0.68906  0.23787  0.11462  1.0000
  C   C2017     1.0  0.60704  0.15991  0.20268  1.0000
  C   C2018     1.0  0.63000  0.17073  0.25024  1.0000
  C   C2019     1.0  0.60753  0.19468  0.26135  1.0000
  C   C2020     1.0  0.61759  0.21277  0.25477  1.0000
  C   C2021     1.0  0.64618  0.17117  0.25547  1.0000
  C   C2022     1.0  0.69178  0.17822  0.26277  1.0000
  C   C2023     1.0  0.62875  0.22829  0.19121  1.0000
  C   C2024     1.0  0.67019  0.20673  0.21949  1.0000
  C   C2025     1.0  0.59627  0.16897  0.30191  1.0000
  C   C2026     1.0  0.61708  0.19838  0.30639  1.0000
  C   C2027     1.0  0.59079  0.20032  0.35209  1.0000
  C   C2028     1.0  0.61881  0.25594  0.37285  1.0000
  C   C2029     1.0  0.65944  0.15239  0.34273  1.0000
  C   C2030     1.0  0.69382  0.18506  0.38278  1.0000
  C   C2031     1.0  0.64902  0.21283  0.29335  1.0000
  C   C2032     1.0  0.65500  0.22509  0.32898  1.0000
  C   C2033     1.0  0.57779  0.16808  0.39433  1.0000
  C   C2034     1.0  0.63006  0.17168  0.42257  1.0000
  C   C2035     1.0  0.61113  0.20406  0.44925  1.0000
  C   C2036     1.0  0.62290  0.21008  0.48401  1.0000
  C   C2037     1.0  0.64587  0.18567  0.45823  1.0000
  C   C2038     1.0  0.66750  0.19265  0.47193  1.0000
  C   C2039     1.0  0.65099  0.21656  0.40335  1.0000
  C   C2040     1.0  0.67374  0.21984  0.44108  1.0000
  C   C2041     1.0  0.60440  0.14693  0.49844  1.0000
  C   C2042     1.0  0.62268  0.19316  0.53174  1.0000
  C   C2043     1.0  0.59452  0.19428  0.55286  1.0000
  C   C2044     1.0  0.63502  0.24020  0.56209  1.0000
  C   C2045     1.0  0.64550  0.15333  0.55091  1.0000
  C   C2046     1.0  0.65646  0.18376  0.55996  1.0000
  C   C2047     1.0  0.65266  0.22857  0.51088  1.0000
  C   C2048     1.0  0.67028  0.21856  0.51777  1.0000
  C   C2049     1.0  0.60102  0.17418  0.57334  1.0000
  C   C2050     1.0  0.61792  0.17744  0.63297  1.0000
  C   C2051     1.0  0.59876  0.19323  0.65823  1.0000
  C   C2052     1.0  0.65352  0.23308  0.67276  1.0000
  C   C2053     1.0  0.65069  0.14850  0.64743  1.0000
  C   C2054     1.0  0.67835  0.19296  0.67670  1.0000
  C   C2055     1.0  0.62568  0.19007  0.60081  1.0000
  C   C2056     1.0  0.67642  0.23971  0.63730  1.0000
  C   C2057     1.0  0.59157  0.13306  0.69595  1.0000
  C   C2058     1.0  0.62876  0.19907  0.73360  1.0000
  C   C2059     1.0  0.61264  0.20302  0.73645  1.0000
  C   C2060     1.0  0.62729  0.22927  0.74946  1.0000
  C   C2061     1.0  0.65897  0.14561  0.75707  1.0000
  C   C2062     1.0  0.68185  0.18247  0.77087  1.0000
  C   C2063     1.0  0.65962  0.20088  0.70345  1.0000
  C   C2064     1.0  0.67064  0.22616  0.71362  1.0000
  C   C2065     1.0  0.60683  0.14295  0.82095  1.0000
  C   C2066     1.0  0.62277  0.17417  0.80509  1.0000
  C   C2067     1.0  0.61070  0.22145  0.85324  1.0000
  C   C2068     1.0  0.62644  0.22436  0.86927  1.0000
  C   C2069     1.0  0.64412  0.15013  0.85524  1.0000
  C   C2070     1.0  0.65794  0.18709  0.88082  1.0000
  C   C2071     1.0  0.64247  0.21285  0.79511  1.0000
  C   C2072     1.0  0.66306  0.22745  0.82252  1.0000
  C   C2073     1.0  0.59407  0.15938  0.91037  1.0000
  C   C2074     1.0  0.63795  0.18865  0.91574  1.0000
  C   C2075     1.0  0.59650  0.21379  0.94647  1.0000
  C   C2076     1.0  0.62536  0.20429  0.96155  1.0000
  C   C2077     1.0  0.65723  0.15281  0.96591  1.0000
  C   C2078     1.0  0.68397  0.18197  0.97500  1.0000
  C   C2079     1.0  0.66254  0.20807  0.89126  1.0000
  C   C2080     1.0  0.68689  0.24104  0.92641  1.0000
  C   C2081     1.0  0.60058  0.26105  0.98832  1.0000
  C   C2082     1.0  0.62471  0.27691  0.02122  1.0000
  C   C2083     1.0  0.60923  0.29641  0.06858  1.0000
  C   C2084     1.0  0.63477  0.32501  0.09161  1.0000
  C   C2085     1.0  0.63952  0.26128  0.04652  1.0000
  C   C2086     1.0  0.69311  0.28722  0.08455  1.0000
  C   C2087     1.0  0.65097  0.31509  0.00598  1.0000
  C   C2088     1.0  0.67701  0.33041  0.01860  1.0000
  C   C2089     1.0  0.59117  0.25902  0.08182  1.0000
  C   C2090     1.0  0.63434  0.27953  0.12240  1.0000
  C   C2091     1.0  0.61718  0.31051  0.14721  1.0000
  C   C2092     1.0  0.62174  0.34766  0.19722  1.0000
  C   C2093     1.0  0.65376  0.26061  0.14831  1.0000
  C   C2094     1.0  0.67710  0.27551  0.18412  1.0000
  C   C2095     1.0  0.63042  0.30840  0.10543  1.0000
  C   C2096     1.0  0.67664  0.34279  0.13556  1.0000
  C   C2097     1.0  0.58031  0.24227  0.20082  1.0000
  C   C2098     1.0  0.60467  0.27375  0.21280  1.0000
  C   C2099     1.0  0.60944  0.29481  0.25458  1.0000
  C   C2100     1.0  0.63427  0.31772  0.26831  1.0000
  C   C2101     1.0  0.63763  0.24847  0.24531  1.0000
  C   C2102     1.0  0.68860  0.27872  0.28101  1.0000
  C   C2103     1.0  0.65358  0.30989  0.19989  1.0000
  C   C2104     1.0  0.67364  0.34049  0.21675  1.0000
  C   C2105     1.0  0.59236  0.25072  0.29082  1.0000
  C   C2106     1.0  0.63982  0.27475  0.32453  1.0000
  C   C2107     1.0  0.59100  0.30579  0.35237  1.0000
  C   C2108     1.0  0.63239  0.32275  0.36775  1.0000
  C   C2109     1.0  0.65053  0.24616  0.34829  1.0000
  C   C2110     1.0  0.67327  0.30144  0.36655  1.0000
  C   C2111     1.0  0.64431  0.29605  0.30660  1.0000
  C   C2112     1.0  0.65980  0.31764  0.32231  1.0000
  C   C2113     1.0  0.59636  0.27247  0.39234  1.0000
  C   C2114     1.0  0.62104  0.29014  0.42006  1.0000
  C   C2115     1.0  0.59319  0.30668  0.46859  1.0000
  C   C2116     1.0  0.61972  0.33290  0.47428  1.0000
  C   C2117     1.0  0.66019  0.24418  0.46193  1.0000
  C   C2118     1.0  0.67356  0.27476  0.48008  1.0000
  C   C2119     1.0  0.64378  0.30215  0.38638  1.0000
  C   C2120     1.0  0.67926  0.34103  0.41902  1.0000
  C   C2121     1.0  0.58079  0.25433  0.50434  1.0000
  C   C2122     1.0  0.63530  0.29127  0.51928  1.0000
  C   C2123     1.0  0.58420  0.32655  0.55264  1.0000
  C   C2124     1.0  0.62145  0.32696  0.58116  1.0000
  C   C2125     1.0  0.66055  0.25259  0.54918  1.0000
  C   C2126     1.0  0.68418  0.28991  0.59627  1.0000
  C   C2127     1.0  0.63892  0.32089  0.50093  1.0000
  C   C2128     1.0  0.65366  0.34709  0.52067  1.0000
  C   C2129     1.0  0.61802  0.26194  0.60263  1.0000
  C   C2130     1.0  0.63738  0.28260  0.64382  1.0000
  C   C2131     1.0  0.60695  0.28591  0.64986  1.0000
  C   C2132     1.0  0.62928  0.33460  0.68795  1.0000
  C   C2133     1.0  0.65582  0.23988  0.64640  1.0000
  C   C2134     1.0  0.67148  0.29674  0.67018  1.0000
  C   C2135     1.0  0.65050  0.29495  0.60436  1.0000
  C   C2136     1.0  0.68846  0.33400  0.62423  1.0000
  C   C2137     1.0  0.62426  0.26848  0.70118  1.0000
  C   C2138     1.0  0.62933  0.26934  0.72201  1.0000
  C   C2139     1.0  0.61130  0.31320  0.74538  1.0000
  C   C2140     1.0  0.62934  0.32790  0.76056  1.0000
  C   C2141     1.0  0.65059  0.26285  0.72707  1.0000
  C   C2142     1.0  0.67623  0.30009  0.78267  1.0000
  C   C2143     1.0  0.64674  0.31854  0.68896  1.0000
  C   C2144     1.0  0.65334  0.35087  0.69900  1.0000
  C   C2145     1.0  0.59159  0.25665  0.80092  1.0000
  C   C2146     1.0  0.62862  0.31332  0.83323  1.0000
  C   C2147     1.0  0.60819  0.30762  0.84067  1.0000
  C   C2148     1.0  0.63995  0.32388  0.88291  1.0000
  C   C2149     1.0  0.66314  0.23886  0.84060  1.0000
  C   C2150     1.0  0.67562  0.28419  0.86709  1.0000
  C   C2151     1.0  0.64400  0.30232  0.81244  1.0000
  C   C2152     1.0  0.68213  0.33202  0.82400  1.0000
  C   C2153     1.0  0.60106  0.26751  0.89383  1.0000
  C   C2154     1.0  0.62291  0.26778  0.92242  1.0000
  C   C2155     1.0  0.59081  0.29502  0.94260  1.0000
  C   C2156     1.0  0.61695  0.32073  0.95932  1.0000
  C   C2157     1.0  0.64404  0.28090  0.95396  1.0000
  C   C2158     1.0  0.66835  0.29904  0.96405  1.0000
  C   C2159     1.0  0.65132  0.29392  0.89817  1.0000
  C   C2160     1.0  0.66965  0.32957  0.92336  1.0000
  C   C2161     1.0  0.61688  0.34623  0.99399  1.0000
  C   C2162     1.0  0.62586  0.38710  0.02998  1.0000
  C   C2163     1.0  0.59055  0.40491  0.04810  1.0000
  C   C2164     1.0  0.64251  0.43411  0.07112  1.0000
  C   C2165     1.0  0.62837  0.34988  0.05771  1.0000
  C   C2166     1.0  0.68273  0.37446  0.08365  1.0000
  C   C2167     1.0  0.64079  0.40171  0.01147  1.0000
  C   C2168     1.0  0.67439  0.41965  0.02358  1.0000
  C   C2169     1.0  0.57785  0.35885  0.07447  1.0000
  C   C2170     1.0  0.61458  0.38659  0.12535  1.0000
  C   C2171     1.0  0.60793  0.38282  0.15377  1.0000
  C   C2172     1.0  0.61048  0.43269  0.17849  1.0000
  C   C2173     1.0  0.65200  0.38158  0.15425  1.0000
  C   C2174     1.0  0.68791  0.38538  0.19418  1.0000
  C   C2175     1.0  0.63841  0.40551  0.08594  1.0000
  C   C2176     1.0  0.68710  0.41806  0.11253  1.0000
  C   C2177     1.0  0.59537  0.35070  0.21505  1.0000
  C   C2178     1.0  0.64003  0.39169  0.22690  1.0000
  C   C2179     1.0  0.60926  0.41500  0.25998  1.0000
  C   C2180     1.0  0.63390  0.42446  0.25440  1.0000
  C   C2181     1.0  0.64422  0.34647  0.24982  1.0000
  C   C2182     1.0  0.68036  0.39138  0.28457  1.0000
  C   C2183     1.0  0.64916  0.41649  0.21090  1.0000
  C   C2184     1.0  0.67575  0.42390  0.24259  1.0000
  C   C2185     1.0  0.59752  0.36598  0.32107  1.0000
  C   C2186     1.0  0.63286  0.36269  0.31935  1.0000
  C   C2187     1.0  0.59536  0.41785  0.33717  1.0000
  C   C2188     1.0  0.61403  0.42069  0.35271  1.0000
  C   C2189     1.0  0.65106  0.37823  0.33416  1.0000
  C   C2190     1.0  0.66804  0.36809  0.36453  1.0000
  C   C2191     1.0  0.63908  0.42037  0.31758  1.0000
  C   C2192     1.0  0.67788  0.41393  0.34035  1.0000
  C   C2193     1.0  0.58911  0.36368  0.40165  1.0000
  C   C2194     1.0  0.63168  0.38638  0.43142  1.0000
  C   C2195     1.0  0.61397  0.39773  0.44492  1.0000
  C   C2196     1.0  0.61120  0.43019  0.46518  1.0000
  C   C2197     1.0  0.66007  0.36557  0.43200  1.0000
  C   C2198     1.0  0.68969  0.38395  0.46219  1.0000
  C   C2199     1.0  0.65440  0.39813  0.39514  1.0000
  C   C2200     1.0  0.66375  0.44458  0.42059  1.0000
  C   C2201     1.0  0.59671  0.35362  0.49845  1.0000
  C   C2202     1.0  0.63064  0.37535  0.51932  1.0000
  C   C2203     1.0  0.60766  0.41547  0.53739  1.0000
  C   C2204     1.0  0.62487  0.43056  0.57647  1.0000
  C   C2205     1.0  0.64718  0.35448  0.54535  1.0000
  C   C2206     1.0  0.66855  0.38509  0.57157  1.0000
  C   C2207     1.0  0.63596  0.39988  0.51069  1.0000
  C   C2208     1.0  0.69109  0.40870  0.51892  1.0000
  C   C2209     1.0  0.59021  0.35297  0.59238  1.0000
  C   C2210     1.0  0.64120  0.36730  0.61119  1.0000
  C   C2211     1.0  0.59400  0.41473  0.65447  1.0000
  C   C2212     1.0  0.63229  0.43721  0.67901  1.0000
  C   C2213     1.0  0.64259  0.36558  0.65254  1.0000
  C   C2214     1.0  0.65106  0.38513  0.68469  1.0000
  C   C2215     1.0  0.66115  0.39193  0.60085  1.0000
  C   C2216     1.0  0.69797  0.42286  0.64620  1.0000
  C   C2217     1.0  0.59102  0.36194  0.69384  1.0000
  C   C2218     1.0  0.62570  0.38650  0.70179  1.0000
  C   C2219     1.0  0.61128  0.41512  0.76838  1.0000
  C   C2220     1.0  0.64002  0.43816  0.77431  1.0000
  C   C2221     1.0  0.63860  0.37266  0.74677  1.0000
  C   C2222     1.0  0.67698  0.38035  0.76681  1.0000
  C   C2223     1.0  0.65038  0.40670  0.71263  1.0000
  C   C2224     1.0  0.66599  0.43075  0.71095  1.0000
  C   C2225     1.0  0.60101  0.36575  0.80858  1.0000
  C   C2226     1.0  0.63096  0.38647  0.81304  1.0000
  C   C2227     1.0  0.61260  0.40064  0.85973  1.0000
  C   C2228     1.0  0.61403  0.44492  0.87161  1.0000
  C   C2229     1.0  0.65786  0.34358  0.86091  1.0000
  C   C2230     1.0  0.67124  0.38478  0.87081  1.0000
  C   C2231     1.0  0.64701  0.41619  0.80978  1.0000
  C   C2232     1.0  0.66450  0.44915  0.82231  1.0000
  C   C2233     1.0  0.57735  0.35983  0.91070  1.0000
  C   C2234     1.0  0.63780  0.38610  0.92499  1.0000
  C   C2235     1.0  0.59738  0.39833  0.92400  1.0000
  C   C2236     1.0  0.61314  0.42089  0.99724  1.0000
  C   C2237     1.0  0.66112  0.37095  0.94363  1.0000
  C   C2238     1.0  0.68439  0.39095  0.95128  1.0000
  C   C2239     1.0  0.65085  0.38922  0.90866  1.0000
  C   C2240     1.0  0.68662  0.43107  0.91564  1.0000
  C   C2241     1.0  0.70135  0.06226  0.00167  1.0000
  C   C2242     1.0  0.71248  0.07298  0.01616  1.0000
  C   C2243     1.0  0.69610  0.10814  0.07251  1.0000
  C   C2244     1.0  0.72068  0.14577  0.08205  1.0000
  C   C2245     1.0  0.75044  0.45606  0.06861  1.0000
  C   C2246     1.0  0.78165  0.07914  0.08497  1.0000
  C   C2247     1.0  0.73341  0.08123  0.98401  1.0000
  C   C2248     1.0  0.76201  0.12409  0.01970  1.0000
  C   C2249     1.0  0.70561  0.06857  0.11236  1.0000
  C   C2250     1.0  0.75036  0.08290  0.11869  1.0000
  C   C2251     1.0  0.71140  0.09614  0.15787  1.0000
  C   C2252     1.0  0.72301  0.14565  0.18969  1.0000
  C   C2253     1.0  0.73462  0.44356  0.14185  1.0000
  C   C2254     1.0  0.79262  0.08465  0.16026  1.0000
  C   C2255     1.0  0.76419  0.11122  0.11205  1.0000
  C   C2256     1.0  0.76880  0.14167  0.12499  1.0000
  C   C2257     1.0  0.70362  0.43775  0.19400  1.0000
  C   C2258     1.0  0.73510  0.09262  0.23499  1.0000
  C   C2259     1.0  0.70088  0.10801  0.25865  1.0000
  C   C2260     1.0  0.72336  0.12961  0.27976  1.0000
  C   C2261     1.0  0.75657  0.45085  0.26298  1.0000
  C   C2262     1.0  0.78441  0.08246  0.26745  1.0000
  C   C2263     1.0  0.75763  0.11696  0.19925  1.0000
  C   C2264     1.0  0.77298  0.13813  0.22424  1.0000
  C   C2265     1.0  0.72267  0.06197  0.30567  1.0000
  C   C2266     1.0  0.73996  0.08921  0.33531  1.0000
  C   C2267     1.0  0.69800  0.10674  0.35022  1.0000
  C   C2268     1.0  0.73563  0.14207  0.36599  1.0000
  C   C2269     1.0  0.75195  0.44936  0.36840  1.0000
  C   C2270     1.0  0.77505  0.06648  0.38157  1.0000
  C   C2271     1.0  0.74061  0.10228  0.31155  1.0000
  C   C2272     1.0  0.78340  0.12003  0.33291  1.0000
  C   C2273     1.0  0.68102  0.44574  0.39516  1.0000
  C   C2274     1.0  0.74080  0.08126  0.43089  1.0000
  C   C2275     1.0  0.71517  0.10252  0.45115  1.0000
  C   C2276     1.0  0.72357  0.13504  0.48943  1.0000
  C   C2277     1.0  0.74274  0.44292  0.44087  1.0000
  C   C2278     1.0  0.77561  0.08517  0.46621  1.0000
  C   C2279     1.0  0.73771  0.10908  0.41418  1.0000
  C   C2280     1.0  0.77021  0.14406  0.40779  1.0000
  C   C2281     1.0  0.68602  0.06615  0.48718  1.0000
  C   C2282     1.0  0.74190  0.07894  0.51571  1.0000
  C   C2283     1.0  0.70241  0.09412  0.55487  1.0000
  C   C2284     1.0  0.72648  0.12063  0.59504  1.0000
  C   C2285     1.0  0.74096  0.06964  0.54467  1.0000
  C   C2286     1.0  0.79180  0.07990  0.56558  1.0000
  C   C2287     1.0  0.74235  0.11669  0.50062  1.0000
  C   C2288     1.0  0.79657  0.13541  0.52254  1.0000
  C   C2289     1.0  0.69495  0.05813  0.59822  1.0000
  C   C2290     1.0  0.72177  0.07220  0.64759  1.0000
  C   C2291     1.0  0.69321  0.12014  0.64309  1.0000
  C   C2292     1.0  0.73435  0.11667  0.68401  1.0000
  C   C2293     1.0  0.75286  0.45264  0.63866  1.0000
  C   C2294     1.0  0.77606  0.08232  0.65382  1.0000
  C   C2295     1.0  0.75340  0.09288  0.59487  1.0000
  C   C2296     1.0  0.77712  0.14816  0.64591  1.0000
  C   C2297     1.0  0.69501  0.44779  0.70648  1.0000
  C   C2298     1.0  0.72634  0.09676  0.74736  1.0000
  C   C2299     1.0  0.70279  0.11244  0.74185  1.0000
  C   C2300     1.0  0.71616  0.13098  0.76371  1.0000
  C   C2301     1.0  0.76279  0.06057  0.76052  1.0000
  C   C2302     1.0  0.74125  0.06919  0.77023  1.0000
  C   C2303     1.0  0.75918  0.09997  0.70577  1.0000
  C   C2304     1.0  0.77149  0.12014  0.71837  1.0000
  C   C2305     1.0  0.69646  0.06454  0.79845  1.0000
  C   C2306     1.0  0.73997  0.09469  0.82632  1.0000
  C   C2307     1.0  0.69669  0.11078  0.85261  1.0000
  C   C2308     1.0  0.71964  0.14631  0.88753  1.0000
  C   C2309     1.0  0.73569  0.06779  0.84534  1.0000
  C   C2310     1.0  0.77195  0.09176  0.88495  1.0000
  C   C2311     1.0  0.75905  0.10696  0.81772  1.0000
  C   C2312     1.0  0.78676  0.13837  0.80959  1.0000
  C   C2313     1.0  0.72343  0.06045  0.89100  1.0000
  C   C2314     1.0  0.72385  0.07181  0.91271  1.0000
  C   C2315     1.0  0.71386  0.11654  0.96640  1.0000
  C   C2316     1.0  0.71614  0.13697  0.97751  1.0000
  C   C2317     1.0  0.74135  0.44301  0.93032  1.0000
  C   C2318     1.0  0.77622  0.09478  0.97395  1.0000
  C   C2319     1.0  0.72620  0.11338  0.90094  1.0000
  C   C2320     1.0  0.77753  0.11882  0.94193  1.0000
  C   C2321     1.0  0.71677  0.15731  0.00571  1.0000
  C   C2322     1.0  0.72045  0.17306  0.02448  1.0000
  C   C2323     1.0  0.69524  0.20382  0.04192  1.0000
  C   C2324     1.0  0.71773  0.22861  0.08279  1.0000
  C   C2325     1.0  0.73673  0.16231  0.04968  1.0000
  C   C2326     1.0  0.76849  0.18254  0.09000  1.0000
  C   C2327     1.0  0.75730  0.22652  0.00818  1.0000
  C   C2328     1.0  0.77850  0.21087  0.02938  1.0000
  C   C2329     1.0  0.71533  0.17051  0.09597  1.0000
  C   C2330     1.0  0.72668  0.18825  0.12207  1.0000
  C   C2331     1.0  0.68069  0.21561  0.15055  1.0000
  C   C2332     1.0  0.71010  0.21806  0.17099  1.0000
  C   C2333     1.0  0.75723  0.14577  0.15340  1.0000
  C   C2334     1.0  0.76138  0.18665  0.18168  1.0000
  C   C2335     1.0  0.76278  0.20027  0.12232  1.0000
  C   C2336     1.0  0.76450  0.22970  0.12477  1.0000
  C   C2337     1.0  0.68073  0.14444  0.17896  1.0000
  C   C2338     1.0  0.71493  0.19361  0.22969  1.0000
  C   C2339     1.0  0.70182  0.20384  0.26356  1.0000
  C   C2340     1.0  0.72529  0.21182  0.27589  1.0000
  C   C2341     1.0  0.75297  0.13934  0.26594  1.0000
  C   C2342     1.0  0.78479  0.16112  0.26410  1.0000
  C   C2343     1.0  0.74385  0.21611  0.19807  1.0000
  C   C2344     1.0  0.77676  0.23496  0.21754  1.0000
  C   C2345     1.0  0.70351  0.15226  0.29809  1.0000
  C   C2346     1.0  0.72703  0.17201  0.32726  1.0000
  C   C2347     1.0  0.69351  0.19901  0.34335  1.0000
  C   C2348     1.0  0.73135  0.23974  0.37919  1.0000
  C   C2349     1.0  0.74852  0.14891  0.35772  1.0000
  C   C2350     1.0  0.75714  0.17594  0.37506  1.0000
  C   C2351     1.0  0.76417  0.19744  0.28371  1.0000
  C   C2352     1.0  0.76788  0.23687  0.32193  1.0000
  C   C2353     1.0  0.70501  0.15344  0.40105  1.0000
  C   C2354     1.0  0.71713  0.18675  0.40414  1.0000
  C   C2355     1.0  0.68776  0.21614  0.44591  1.0000
  C   C2356     1.0  0.71918  0.22780  0.46508  1.0000
  C   C2357     1.0  0.73768  0.17058  0.43925  1.0000
  C   C2358     1.0  0.77809  0.19691  0.46904  1.0000
  C   C2359     1.0  0.73545  0.21295  0.39835  1.0000
  C   C2360     1.0  0.76405  0.22561  0.42072  1.0000
  C   C2361     1.0  0.70306  0.14343  0.50577  1.0000
  C   C2362     1.0  0.73067  0.17164  0.52302  1.0000
  C   C2363     1.0  0.69055  0.20864  0.55138  1.0000
  C   C2364     1.0  0.74683  0.22599  0.56625  1.0000
  C   C2365     1.0  0.74970  0.15227  0.54635  1.0000
  C   C2366     1.0  0.78000  0.18464  0.58990  1.0000
  C   C2367     1.0  0.76901  0.20209  0.49582  1.0000
  C   C2368     1.0  0.79187  0.24254  0.51778  1.0000
  C   C2369     1.0  0.69961  0.15318  0.59608  1.0000
  C   C2370     1.0  0.71996  0.17095  0.63436  1.0000
  C   C2371     1.0  0.69664  0.21295  0.62880  1.0000
  C   C2372     1.0  0.74305  0.22946  0.67849  1.0000
  C   C2373     1.0  0.74559  0.15151  0.65015  1.0000
  C   C2374     1.0  0.78466  0.18043  0.68238  1.0000
  C   C2375     1.0  0.76340  0.19790  0.59225  1.0000
  C   C2376     1.0  0.75173  0.22597  0.63726  1.0000
  C   C2377     1.0  0.69542  0.15880  0.69913  1.0000
  C   C2378     1.0  0.72706  0.18683  0.72023  1.0000
  C   C2379     1.0  0.70331  0.17302  0.74658  1.0000
  C   C2380     1.0  0.72226  0.21730  0.76346  1.0000
  C   C2381     1.0  0.74340  0.15046  0.74940  1.0000
  C   C2382     1.0  0.74008  0.17902  0.78313  1.0000
  C   C2383     1.0  0.75615  0.21577  0.69201  1.0000
  C   C2384     1.0  0.77818  0.23210  0.72114  1.0000
  C   C2385     1.0  0.69053  0.15356  0.78998  1.0000
  C   C2386     1.0  0.71122  0.18419  0.82048  1.0000
  C   C2387     1.0  0.70862  0.20931  0.86336  1.0000
  C   C2388     1.0  0.72661  0.25664  0.86103  1.0000
  C   C2389     1.0  0.74624  0.15242  0.82946  1.0000
  C   C2390     1.0  0.77021  0.16237  0.88847  1.0000
  C   C2391     1.0  0.77899  0.20975  0.79535  1.0000
  C   C2392     1.0  0.76463  0.22300  0.83059  1.0000
  C   C2393     1.0  0.69095  0.16908  0.90192  1.0000
  C   C2394     1.0  0.71679  0.17895  0.93946  1.0000
  C   C2395     1.0  0.70882  0.21170  0.94461  1.0000
  C   C2396     1.0  0.74086  0.22279  0.94708  1.0000
  C   C2397     1.0  0.74907  0.15208  0.93558  1.0000
  C   C2398     1.0  0.78707  0.19000  0.98435  1.0000
  C   C2399     1.0  0.73757  0.19835  0.90315  1.0000
  C   C2400     1.0  0.79463  0.23310  0.91579  1.0000
  C   C2401     1.0  0.70837  0.26334  0.00542  1.0000
  C   C2402     1.0  0.71020  0.28046  0.02476  1.0000
  C   C2403     1.0  0.71911  0.32134  0.03919  1.0000
  C   C2404     1.0  0.73283  0.30029  0.09693  1.0000
  C   C2405     1.0  0.74772  0.26737  0.03979  1.0000
  C   C2406     1.0  0.79057  0.29784  0.07476  1.0000
  C   C2407     1.0  0.75360  0.30048  0.98112  1.0000
  C   C2408     1.0  0.79298  0.34055  0.02855  1.0000
  C   C2409     1.0  0.70303  0.24656  0.08691  1.0000
  C   C2410     1.0  0.71634  0.28206  0.13123  1.0000
  C   C2411     1.0  0.68928  0.30322  0.12861  1.0000
  C   C2412     1.0  0.73410  0.34018  0.18016  1.0000
  C   C2413     1.0  0.76250  0.24044  0.15150  1.0000
  C   C2414     1.0  0.78634  0.28175  0.17489  1.0000
  C   C2415     1.0  0.75080  0.30991  0.11792  1.0000
  C   C2416     1.0  0.76925  0.32042  0.12231  1.0000
  C   C2417     1.0  0.68975  0.24526  0.20766  1.0000
  C   C2418     1.0  0.70756  0.27324  0.20839  1.0000
  C   C2419     1.0  0.69346  0.30115  0.24716  1.0000
  C   C2420     1.0  0.73531  0.32637  0.26372  1.0000
  C   C2421     1.0  0.75298  0.25965  0.24837  1.0000
  C   C2422     1.0  0.77565  0.30697  0.25842  1.0000
  C   C2423     1.0  0.75473  0.31911  0.20541  1.0000
  C   C2424     1.0  0.76805  0.34373  0.23212  1.0000
  C   C2425     1.0  0.69361  0.28081  0.29648  1.0000
  C   C2426     1.0  0.72259  0.29660  0.32791  1.0000
  C   C2427     1.0  0.69523  0.31757  0.36437  1.0000
  C   C2428     1.0  0.74527  0.34059  0.37285  1.0000
  C   C2429     1.0  0.75581  0.25609  0.35063  1.0000
  C   C2430     1.0  0.77371  0.27707  0.36633  1.0000
  C   C2431     1.0  0.75191  0.30745  0.29363  1.0000
  C   C2432     1.0  0.76922  0.33724  0.32104  1.0000
  C   C2433     1.0  0.70534  0.25222  0.38594  1.0000
  C   C2434     1.0  0.70300  0.27861  0.43156  1.0000
  C   C2435     1.0  0.69743  0.29659  0.46317  1.0000
  C   C2436     1.0  0.70720  0.33146  0.45709  1.0000
  C   C2437     1.0  0.73956  0.26081  0.43780  1.0000
  C   C2438     1.0  0.77359  0.27043  0.47413  1.0000
  C   C2439     1.0  0.76608  0.31156  0.41238  1.0000
  C   C2440     1.0  0.75727  0.33876  0.44225  1.0000
  C   C2441     1.0  0.69476  0.25786  0.50398  1.0000
  C   C2442     1.0  0.73083  0.28535  0.52408  1.0000
  C   C2443     1.0  0.71587  0.30176  0.55513  1.0000
  C   C2444     1.0  0.72193  0.32340  0.58413  1.0000
  C   C2445     1.0  0.77084  0.23188  0.56589  1.0000
  C   C2446     1.0  0.79788  0.29461  0.57121  1.0000
  C   C2447     1.0  0.74755  0.30278  0.50365  1.0000
  C   C2448     1.0  0.77620  0.32932  0.51713  1.0000
  C   C2449     1.0  0.71010  0.25651  0.61955  1.0000
  C   C2450     1.0  0.71242  0.28030  0.62935  1.0000
  C   C2451     1.0  0.70003  0.31930  0.65790  1.0000
  C   C2452     1.0  0.72681  0.31811  0.66133  1.0000
  C   C2453     1.0  0.73797  0.25109  0.65449  1.0000
  C   C2454     1.0  0.78722  0.28653  0.68217  1.0000
  C   C2455     1.0  0.76010  0.29852  0.58950  1.0000
  C   C2456     1.0  0.75878  0.34018  0.62886  1.0000
  C   C2457     1.0  0.70661  0.24862  0.70683  1.0000
  C   C2458     1.0  0.74764  0.27164  0.71921  1.0000
  C   C2459     1.0  0.69817  0.29184  0.74153  1.0000
  C   C2460     1.0  0.72969  0.33378  0.77165  1.0000
  C   C2461     1.0  0.72827  0.24111  0.73196  1.0000
  C   C2462     1.0  0.78157  0.28950  0.76968  1.0000
  C   C2463     1.0  0.75831  0.31430  0.68829  1.0000
  C   C2464     1.0  0.78773  0.34186  0.72346  1.0000
  C   C2465     1.0  0.70824  0.25162  0.79394  1.0000
  C   C2466     1.0  0.71839  0.27507  0.81712  1.0000
  C   C2467     1.0  0.69938  0.30108  0.86189  1.0000
  C   C2468     1.0  0.72767  0.31962  0.87716  1.0000
  C   C2469     1.0  0.73859  0.26092  0.84305  1.0000
  C   C2470     1.0  0.76802  0.27413  0.86456  1.0000
  C   C2471     1.0  0.73640  0.30233  0.80000  1.0000
  C   C2472     1.0  0.75931  0.32644  0.82418  1.0000
  C   C2473     1.0  0.69340  0.25425  0.90554  1.0000
  C   C2474     1.0  0.73520  0.28011  0.90890  1.0000
  C   C2475     1.0  0.69243  0.28553  0.95044  1.0000
  C   C2476     1.0  0.72386  0.30701  0.98557  1.0000
  C   C2477     1.0  0.73621  0.24708  0.94980  1.0000
  C   C2478     1.0  0.75521  0.27817  0.98226  1.0000
  C   C2479     1.0  0.76767  0.29735  0.91273  1.0000
  C   C2480     1.0  0.77597  0.32431  0.91515  1.0000
  C   C2481     1.0  0.70268  0.36950  0.98081  1.0000
  C   C2482     1.0  0.74166  0.40800  0.03103  1.0000
  C   C2483     1.0  0.69579  0.42071  0.05901  1.0000
  C   C2484     1.0  0.72286  0.45048  0.05585  1.0000
  C   C2485     1.0  0.73569  0.37355  0.03798  1.0000
  C   C2486     1.0  0.78472  0.36580  0.07493  1.0000
  C   C2487     1.0  0.75314  0.40144  0.99325  1.0000
  C   C2488     1.0  0.76412  0.45410  0.02876  1.0000
  C   C2489     1.0  0.70959  0.36808  0.10203  1.0000
  C   C2490     1.0  0.70081  0.36799  0.12903  1.0000
  C   C2491     1.0  0.68946  0.41793  0.14593  1.0000
  C   C2492     1.0  0.72997  0.44285  0.17721  1.0000
  C   C2493     1.0  0.74073  0.36291  0.13999  1.0000
  C   C2494     1.0  0.77207  0.38057  0.17693  1.0000
  C   C2495     1.0  0.74012  0.40145  0.09866  1.0000
  C   C2496     1.0  0.77058  0.43506  0.10771  1.0000
  C   C2497     1.0  0.70061  0.35989  0.18371  1.0000
  C   C2498     1.0  0.73292  0.36060  0.23204  1.0000
  C   C2499     1.0  0.70705  0.40591  0.22889  1.0000
  C   C2500     1.0  0.74517  0.44532  0.27987  1.0000
  C   C2501     1.0  0.75915  0.34576  0.26155  1.0000
  C   C2502     1.0  0.78144  0.40417  0.27348  1.0000
  C   C2503     1.0  0.74457  0.39282  0.20386  1.0000
  C   C2504     1.0  0.77042  0.42667  0.21055  1.0000
  C   C2505     1.0  0.69266  0.37372  0.29969  1.0000
  C   C2506     1.0  0.72809  0.37969  0.31887  1.0000
  C   C2507     1.0  0.70836  0.41507  0.34820  1.0000
  C   C2508     1.0  0.73248  0.42227  0.38957  1.0000
  C   C2509     1.0  0.74758  0.35896  0.34073  1.0000
  C   C2510     1.0  0.77550  0.37166  0.38357  1.0000
  C   C2511     1.0  0.74219  0.40876  0.29427  1.0000
  C   C2512     1.0  0.77547  0.42179  0.31785  1.0000
  C   C2513     1.0  0.70459  0.36029  0.40402  1.0000
  C   C2514     1.0  0.75227  0.37603  0.40075  1.0000
  C   C2515     1.0  0.68337  0.41027  0.45600  1.0000
  C   C2516     1.0  0.69932  0.42294  0.48156  1.0000
  C   C2517     1.0  0.76406  0.34511  0.45844  1.0000
  C   C2518     1.0  0.76594  0.38719  0.47905  1.0000
  C   C2519     1.0  0.76160  0.41200  0.39798  1.0000
  C   C2520     1.0  0.76491  0.42933  0.41829  1.0000
  C   C2521     1.0  0.71794  0.36696  0.47392  1.0000
  C   C2522     1.0  0.72188  0.38349  0.50732  1.0000
  C   C2523     1.0  0.71218  0.42742  0.55116  1.0000
  C   C2524     1.0  0.71870  0.43218  0.60214  1.0000
  C   C2525     1.0  0.76872  0.34832  0.55767  1.0000
  C   C2526     1.0  0.77340  0.38849  0.59988  1.0000
  C   C2527     1.0  0.73641  0.41663  0.50650  1.0000
  C   C2528     1.0  0.78083  0.41155  0.54088  1.0000
  C   C2529     1.0  0.71577  0.36150  0.60348  1.0000
  C   C2530     1.0  0.72349  0.39316  0.63064  1.0000
  C   C2531     1.0  0.70476  0.41197  0.66788  1.0000
  C   C2532     1.0  0.70901  0.42455  0.68954  1.0000
  C   C2533     1.0  0.73623  0.35569  0.65506  1.0000
  C   C2534     1.0  0.75028  0.37525  0.66914  1.0000
  C   C2535     1.0  0.75903  0.41059  0.62065  1.0000
  C   C2536     1.0  0.77379  0.42775  0.61125  1.0000
  C   C2537     1.0  0.68885  0.34893  0.69100  1.0000
  C   C2538     1.0  0.71802  0.39460  0.71718  1.0000
  C   C2539     1.0  0.69768  0.39638  0.73654  1.0000
  C   C2540     1.0  0.73733  0.43605  0.77782  1.0000
  C   C2541     1.0  0.74645  0.35738  0.76149  1.0000
  C   C2542     1.0  0.77925  0.38778  0.78838  1.0000
  C   C2543     1.0  0.75310  0.42285  0.69105  1.0000
  C   C2544     1.0  0.78437  0.43683  0.72651  1.0000
  C   C2545     1.0  0.69473  0.37580  0.79361  1.0000
  C   C2546     1.0  0.71498  0.38546  0.83274  1.0000
  C   C2547     1.0  0.68936  0.41138  0.85749  1.0000
  C   C2548     1.0  0.72803  0.42678  0.85957  1.0000
  C   C2549     1.0  0.75198  0.36767  0.85994  1.0000
  C   C2550     1.0  0.79307  0.38429  0.88928  1.0000
  C   C2551     1.0  0.73975  0.40408  0.81217  1.0000
  C   C2552     1.0  0.78630  0.43900  0.81122  1.0000
  C   C2553     1.0  0.70544  0.36067  0.90976  1.0000
  C   C2554     1.0  0.71913  0.37275  0.90312  1.0000
  C   C2555     1.0  0.72589  0.41235  0.97067  1.0000
  C   C2556     1.0  0.71485  0.42340  0.98824  1.0000
  C   C2557     1.0  0.76568  0.36069  0.94345  1.0000
  C   C2558     1.0  0.77037  0.37224  0.95282  1.0000
  C   C2559     1.0  0.75461  0.40306  0.91529  1.0000
  C   C2560     1.0  0.77961  0.42433  0.90923  1.0000
  C   C2561     1.0  0.80346  0.44779  0.00286  1.0000
  C   C2562     1.0  0.83966  0.09297  0.02307  1.0000
  C   C2563     1.0  0.79085  0.10115  0.05324  1.0000
  C   C2564     1.0  0.83197  0.12709  0.07990  1.0000
  C   C2565     1.0  0.85520  0.05941  0.05743  1.0000
  C   C2566     1.0  0.84645  0.08553  0.07981  1.0000
  C   C2567     1.0  0.87201  0.08557  0.00199  1.0000
  C   C2568     1.0  0.88432  0.12035  0.03564  1.0000
  C   C2569     1.0  0.81316  0.05879  0.10055  1.0000
  C   C2570     1.0  0.84237  0.08193  0.13267  1.0000
  C   C2571     1.0  0.79825  0.11346  0.14543  1.0000
  C   C2572     1.0  0.83284  0.14559  0.18693  1.0000
  C   C2573     1.0  0.82548  0.43587  0.14809  1.0000
  C   C2574     1.0  0.87167  0.45296  0.19843  1.0000
  C   C2575     1.0  0.84549  0.08450  0.08964  1.0000
  C   C2576     1.0  0.87836  0.13161  0.12696  1.0000
  C   C2577     1.0  0.81555  0.44401  0.20612  1.0000
  C   C2578     1.0  0.81870  0.08710  0.22942  1.0000
  C   C2579     1.0  0.77215  0.11664  0.24459  1.0000
  C   C2580     1.0  0.82584  0.14700  0.26354  1.0000
  C   C2581     1.0  0.84260  0.45049  0.25877  1.0000
  C   C2582     1.0  0.85360  0.09777  0.26036  1.0000
  C   C2583     1.0  0.84964  0.11160  0.20969  1.0000
  C   C2584     1.0  0.89370  0.13305  0.21903  1.0000
  C   C2585     1.0  0.79466  0.06974  0.28277  1.0000
  C   C2586     1.0  0.84455  0.09641  0.32267  1.0000
  C   C2587     1.0  0.79876  0.08304  0.35303  1.0000
  C   C2588     1.0  0.84326  0.13573  0.34981  1.0000
  C   C2589     1.0  0.86706  0.06412  0.35296  1.0000
  C   C2590     1.0  0.87256  0.08715  0.35562  1.0000
  C   C2591     1.0  0.85479  0.10106  0.31282  1.0000
  C   C2592     1.0  0.86420  0.12649  0.30071  1.0000
  C   C2593     1.0  0.81197  0.05717  0.39992  1.0000
  C   C2594     1.0  0.82493  0.08447  0.43252  1.0000
  C   C2595     1.0  0.80460  0.11164  0.43569  1.0000
  C   C2596     1.0  0.81730  0.12706  0.47921  1.0000
  C   C2597     1.0  0.84592  0.45043  0.45862  1.0000
  C   C2598     1.0  0.87157  0.08873  0.46880  1.0000
  C   C2599     1.0  0.83986  0.11090  0.39429  1.0000
  C   C2600     1.0  0.87572  0.14197  0.42485  1.0000
  C   C2601     1.0  0.81831  0.44408  0.49691  1.0000
  C   C2602     1.0  0.83056  0.06423  0.50956  1.0000
  C   C2603     1.0  0.79906  0.09449  0.55243  1.0000
  C   C2604     1.0  0.83442  0.11973  0.57993  1.0000
  C   C2605     1.0  0.83726  0.05631  0.57195  1.0000
  C   C2606     1.0  0.87940  0.07280  0.57233  1.0000
  C   C2607     1.0  0.86665  0.10486  0.50336  1.0000
  C   C2608     1.0  0.86677  0.13738  0.51639  1.0000
  C   C2609     1.0  0.80279  0.05648  0.57768  1.0000
  C   C2610     1.0  0.82519  0.08876  0.62471  1.0000
  C   C2611     1.0  0.80549  0.09424  0.67219  1.0000
  C   C2612     1.0  0.82329  0.12997  0.67345  1.0000
  C   C2613     1.0  0.83157  0.06502  0.66297  1.0000
  C   C2614     1.0  0.88043  0.09321  0.67085  1.0000
  C   C2615     1.0  0.84512  0.10027  0.58509  1.0000
  C   C2616     1.0  0.86628  0.11638  0.63801  1.0000
  C   C2617     1.0  0.77920  0.05650  0.67073  1.0000
  C   C2618     1.0  0.82482  0.09377  0.72998  1.0000
  C   C2619     1.0  0.79456  0.11905  0.76758  1.0000
  C   C2620     1.0  0.82818  0.11872  0.76578  1.0000
  C   C2621     1.0  0.85089  0.06517  0.74395  1.0000
  C   C2622     1.0  0.87098  0.08818  0.77514  1.0000
  C   C2623     1.0  0.84412  0.10092  0.67850  1.0000
  C   C2624     1.0  0.85866  0.10511  0.71755  1.0000
  C   C2625     1.0  0.79369  0.05624  0.79448  1.0000
  C   C2626     1.0  0.82217  0.08829  0.83373  1.0000
  C   C2627     1.0  0.81775  0.10382  0.83584  1.0000
  C   C2628     1.0  0.82162  0.14614  0.88943  1.0000
  C   C2629     1.0  0.85397  0.05873  0.84628  1.0000
  C   C2630     1.0  0.87691  0.07096  0.87084  1.0000
  C   C2631     1.0  0.85693  0.10593  0.79276  1.0000
  C   C2632     1.0  0.87065  0.11727  0.82884  1.0000
  C   C2633     1.0  0.79690  0.45716  0.90087  1.0000
  C   C2634     1.0  0.83078  0.07007  0.93107  1.0000
  C   C2635     1.0  0.79780  0.10532  0.96335  1.0000
  C   C2636     1.0  0.82108  0.12720  0.97416  1.0000
  C   C2637     1.0  0.85306  0.06310  0.95036  1.0000
  C   C2638     1.0  0.85462  0.06177  0.99583  1.0000
  C   C2639     1.0  0.85251  0.12038  0.89064  1.0000
  C   C2640     1.0  0.88698  0.12864  0.92869  1.0000
  C   C2641     1.0  0.80031  0.16735  0.00720  1.0000
  C   C2642     1.0  0.83237  0.16568  0.01115  1.0000
  C   C2643     1.0  0.80953  0.19680  0.06098  1.0000
  C   C2644     1.0  0.82489  0.23045  0.10506  1.0000
  C   C2645     1.0  0.83504  0.14914  0.04333  1.0000
  C   C2646     1.0  0.89159  0.18048  0.07610  1.0000
  C   C2647     1.0  0.85024  0.19766  0.00323  1.0000
  C   C2648     1.0  0.88305  0.24608  0.01372  1.0000
  C   C2649     1.0  0.80810  0.16189  0.09911  1.0000
  C   C2650     1.0  0.83598  0.18763  0.13475  1.0000
  C   C2651     1.0  0.80756  0.21224  0.14641  1.0000
  C   C2652     1.0  0.82806  0.22915  0.19229  1.0000
  C   C2653     1.0  0.85793  0.16945  0.15148  1.0000
  C   C2654     1.0  0.88411  0.17805  0.18408  1.0000
  C   C2655     1.0  0.86697  0.20422  0.11712  1.0000
  C   C2656     1.0  0.86158  0.23304  0.13904  1.0000
  C   C2657     1.0  0.79542  0.15465  0.20194  1.0000
  C   C2658     1.0  0.83534  0.18608  0.21023  1.0000
  C   C2659     1.0  0.79780  0.21555  0.23546  1.0000
  C   C2660     1.0  0.82638  0.21923  0.25768  1.0000
  C   C2661     1.0  0.84553  0.13979  0.24327  1.0000
  C   C2662     1.0  0.88990  0.19735  0.26659  1.0000
  C   C2663     1.0  0.83861  0.20470  0.21378  1.0000
  C   C2664     1.0  0.87189  0.22791  0.22571  1.0000
  C   C2665     1.0  0.78562  0.15589  0.29718  1.0000
  C   C2666     1.0  0.82760  0.17075  0.32236  1.0000
  C   C2667     1.0  0.79741  0.20489  0.34506  1.0000
  C   C2668     1.0  0.81006  0.22115  0.37235  1.0000
  C   C2669     1.0  0.84174  0.16306  0.35990  1.0000
  C   C2670     1.0  0.86673  0.18644  0.37847  1.0000
  C   C2671     1.0  0.85470  0.20766  0.30121  1.0000
  C   C2672     1.0  0.86896  0.23190  0.31568  1.0000
  C   C2673     1.0  0.78747  0.15503  0.38855  1.0000
  C   C2674     1.0  0.81873  0.19325  0.43644  1.0000
  C   C2675     1.0  0.81179  0.21919  0.45048  1.0000
  C   C2676     1.0  0.81166  0.24128  0.46968  1.0000
  C   C2677     1.0  0.83660  0.14275  0.43263  1.0000
  C   C2678     1.0  0.88941  0.17005  0.47645  1.0000
  C   C2679     1.0  0.84638  0.22149  0.39554  1.0000
  C   C2680     1.0  0.87743  0.22634  0.40851  1.0000
  C   C2681     1.0  0.80514  0.13417  0.51989  1.0000
  C   C2682     1.0  0.84070  0.18373  0.52029  1.0000
  C   C2683     1.0  0.79819  0.19272  0.52962  1.0000
  C   C2684     1.0  0.83170  0.22502  0.57190  1.0000
  C   C2685     1.0  0.85020  0.16059  0.55355  1.0000
  C   C2686     1.0  0.87160  0.18228  0.57431  1.0000
  C   C2687     1.0  0.84880  0.18290  0.50107  1.0000
  C   C2688     1.0  0.88084  0.22028  0.52739  1.0000
  C   C2689     1.0  0.80039  0.14791  0.60211  1.0000
  C   C2690     1.0  0.83844  0.17331  0.62061  1.0000
  C   C2691     1.0  0.80700  0.24087  0.63857  1.0000
  C   C2692     1.0  0.82783  0.22932  0.68529  1.0000
  C   C2693     1.0  0.85133  0.17751  0.64846  1.0000
  C   C2694     1.0  0.87266  0.17356  0.67662  1.0000
  C   C2695     1.0  0.85915  0.20059  0.62145  1.0000
  C   C2696     1.0  0.87254  0.24785  0.62761  1.0000
  C   C2697     1.0  0.81608  0.13755  0.70691  1.0000
  C   C2698     1.0  0.83173  0.18035  0.71768  1.0000
  C   C2699     1.0  0.80629  0.21441  0.72820  1.0000
  C   C2700     1.0  0.80370  0.23057  0.77533  1.0000
  C   C2701     1.0  0.85699  0.13881  0.73227  1.0000
  C   C2702     1.0  0.87344  0.18434  0.78394  1.0000
  C   C2703     1.0  0.85688  0.20006  0.68625  1.0000
  C   C2704     1.0  0.88210  0.23928  0.72326  1.0000
  C   C2705     1.0  0.79977  0.16280  0.79921  1.0000
  C   C2706     1.0  0.81585  0.16038  0.82134  1.0000
  C   C2707     1.0  0.78329  0.19121  0.82969  1.0000
  C   C2708     1.0  0.84529  0.21626  0.88033  1.0000
  C   C2709     1.0  0.85322  0.14709  0.86192  1.0000
  C   C2710     1.0  0.88575  0.18013  0.86935  1.0000
  C   C2711     1.0  0.85044  0.20348  0.79522  1.0000
  C   C2712     1.0  0.87231  0.24536  0.82831  1.0000
  C   C2713     1.0  0.79675  0.16331  0.89165  1.0000
  C   C2714     1.0  0.82098  0.17505  0.92487  1.0000
  C   C2715     1.0  0.79715  0.18468  0.94274  1.0000
  C   C2716     1.0  0.83393  0.23470  0.98543  1.0000
  C   C2717     1.0  0.85421  0.15369  0.93561  1.0000
  C   C2718     1.0  0.87262  0.18781  0.98990  1.0000
  C   C2719     1.0  0.84876  0.20208  0.89985  1.0000
  C   C2720     1.0  0.87822  0.23856  0.94053  1.0000
  C   C2721     1.0  0.80775  0.24204  0.00452  1.0000
  C   C2722     1.0  0.83547  0.26786  0.00939  1.0000
  C   C2723     1.0  0.79685  0.32249  0.07430  1.0000
  C   C2724     1.0  0.83710  0.33340  0.07995  1.0000
  C   C2725     1.0  0.84697  0.26553  0.03981  1.0000
  C   C2726     1.0  0.86773  0.26173  0.08237  1.0000
  C   C2727     1.0  0.86286  0.30817  0.00307  1.0000
  C   C2728     1.0  0.88862  0.32556  0.03709  1.0000
  C   C2729     1.0  0.80077  0.25557  0.09833  1.0000
  C   C2730     1.0  0.84264  0.26697  0.13358  1.0000
  C   C2731     1.0  0.79075  0.30800  0.13410  1.0000
  C   C2732     1.0  0.82173  0.34014  0.16876  1.0000
  C   C2733     1.0  0.84557  0.25273  0.14325  1.0000
  C   C2734     1.0  0.88492  0.28074  0.16976  1.0000
  C   C2735     1.0  0.85772  0.29214  0.09872  1.0000
  C   C2736     1.0  0.86890  0.34045  0.12176  1.0000
  C   C2737     1.0  0.80414  0.24700  0.21434  1.0000
  C   C2738     1.0  0.81242  0.28082  0.22048  1.0000
  C   C2739     1.0  0.81858  0.29681  0.25800  1.0000
  C   C2740     1.0  0.83224  0.31885  0.28299  1.0000
  C   C2741     1.0  0.85442  0.25675  0.24791  1.0000
  C   C2742     1.0  0.88409  0.27264  0.27731  1.0000
  C   C2743     1.0  0.84729  0.29386  0.17734  1.0000
  C   C2744     1.0  0.86553  0.32693  0.21837  1.0000
  C   C2745     1.0  0.79801  0.24653  0.29098  1.0000
  C   C2746     1.0  0.82240  0.28056  0.31613  1.0000
  C   C2747     1.0  0.80132  0.30685  0.35576  1.0000
  C   C2748     1.0  0.83458  0.33409  0.38682  1.0000
  C   C2749     1.0  0.84547  0.23598  0.36312  1.0000
  C   C2750     1.0  0.87223  0.26789  0.38805  1.0000
  C   C2751     1.0  0.85300  0.29522  0.30690  1.0000
  C   C2752     1.0  0.87754  0.33670  0.32008  1.0000
  C   C2753     1.0  0.79917  0.27386  0.40239  1.0000
  C   C2754     1.0  0.83987  0.28181  0.43746  1.0000
  C   C2755     1.0  0.80204  0.30159  0.43595  1.0000
  C   C2756     1.0  0.83717  0.31614  0.46375  1.0000
  C   C2757     1.0  0.86533  0.25055  0.45060  1.0000
  C   C2758     1.0  0.85642  0.29962  0.48037  1.0000
  C   C2759     1.0  0.85096  0.31111  0.39811  1.0000
  C   C2760     1.0  0.85925  0.33732  0.42761  1.0000
  C   C2761     1.0  0.79592  0.26496  0.50768  1.0000
  C   C2762     1.0  0.83068  0.29231  0.51144  1.0000
  C   C2763     1.0  0.80153  0.30204  0.54371  1.0000
  C   C2764     1.0  0.82315  0.32467  0.55274  1.0000
  C   C2765     1.0  0.85540  0.24165  0.54265  1.0000
  C   C2766     1.0  0.88213  0.27938  0.57449  1.0000
  C   C2767     1.0  0.85670  0.29982  0.51192  1.0000
  C   C2768     1.0  0.86912  0.35592  0.51885  1.0000
  C   C2769     1.0  0.80473  0.25395  0.60611  1.0000
  C   C2770     1.0  0.82760  0.28288  0.62972  1.0000
  C   C2771     1.0  0.79795  0.31142  0.65747  1.0000
  C   C2772     1.0  0.82197  0.33541  0.66965  1.0000
  C   C2773     1.0  0.84155  0.28343  0.67353  1.0000
  C   C2774     1.0  0.86715  0.27990  0.68203  1.0000
  C   C2775     1.0  0.83844  0.30330  0.58151  1.0000
  C   C2776     1.0  0.88490  0.31990  0.64251  1.0000
  C   C2777     1.0  0.81251  0.25919  0.70209  1.0000
  C   C2778     1.0  0.82892  0.29651  0.71755  1.0000
  C   C2779     1.0  0.81649  0.30775  0.74649  1.0000
  C   C2780     1.0  0.83717  0.33072  0.77382  1.0000
  C   C2781     1.0  0.83986  0.25177  0.77426  1.0000
  C   C2782     1.0  0.86311  0.27851  0.77168  1.0000
  C   C2783     1.0  0.84958  0.30791  0.68693  1.0000
  C   C2784     1.0  0.87977  0.34267  0.74484  1.0000
  C   C2785     1.0  0.78988  0.26526  0.77859  1.0000
  C   C2786     1.0  0.82469  0.28517  0.81015  1.0000
  C   C2787     1.0  0.78819  0.30925  0.85121  1.0000
  C   C2788     1.0  0.80163  0.33160  0.89864  1.0000
  C   C2789     1.0  0.85116  0.26872  0.85423  1.0000
  C   C2790     1.0  0.85070  0.27999  0.87193  1.0000
  C   C2791     1.0  0.85556  0.30142  0.78953  1.0000
  C   C2792     1.0  0.87034  0.32961  0.82470  1.0000
  C   C2793     1.0  0.78644  0.26204  0.90033  1.0000
  C   C2794     1.0  0.80697  0.28389  0.92385  1.0000
  C   C2795     1.0  0.80145  0.29334  0.94718  1.0000
  C   C2796     1.0  0.82204  0.33125  0.96658  1.0000
  C   C2797     1.0  0.87188  0.24182  0.96250  1.0000
  C   C2798     1.0  0.86265  0.27221  0.96866  1.0000
  C   C2799     1.0  0.86821  0.31991  0.89432  1.0000
  C   C2800     1.0  0.88483  0.33733  0.93876  1.0000
  C   C2801     1.0  0.80989  0.35633  0.99922  1.0000
  C   C2802     1.0  0.82049  0.36912  0.01181  1.0000
  C   C2803     1.0  0.80595  0.38398  0.04733  1.0000
  C   C2804     1.0  0.83263  0.42633  0.08124  1.0000
  C   C2805     1.0  0.84157  0.36477  0.03485  1.0000
  C   C2806     1.0  0.89122  0.37625  0.08506  1.0000
  C   C2807     1.0  0.83557  0.41201  0.00366  1.0000
  C   C2808     1.0  0.85641  0.44303  0.02790  1.0000
  C   C2809     1.0  0.78639  0.34410  0.08209  1.0000
  C   C2810     1.0  0.83591  0.37272  0.12539  1.0000
  C   C2811     1.0  0.79844  0.41027  0.14330  1.0000
  C   C2812     1.0  0.82816  0.45021  0.17769  1.0000
  C   C2813     1.0  0.84587  0.36140  0.14641  1.0000
  C   C2814     1.0  0.88727  0.40688  0.18238  1.0000
  C   C2815     1.0  0.86003  0.39138  0.10815  1.0000
  C   C2816     1.0  0.86968  0.41369  0.12175  1.0000
  C   C2817     1.0  0.80757  0.35858  0.20789  1.0000
  C   C2818     1.0  0.81454  0.36951  0.24271  1.0000
  C   C2819     1.0  0.80331  0.41656  0.26155  1.0000
  C   C2820     1.0  0.81656  0.42884  0.27443  1.0000
  C   C2821     1.0  0.86210  0.35977  0.26972  1.0000
  C   C2822     1.0  0.87118  0.39175  0.27764  1.0000
  C   C2823     1.0  0.86390  0.40468  0.19757  1.0000
  C   C2824     1.0  0.86765  0.45089  0.23580  1.0000
  C   C2825     1.0  0.79309  0.36675  0.30460  1.0000
  C   C2826     1.0  0.82295  0.37249  0.32840  1.0000
  C   C2827     1.0  0.80082  0.41977  0.36093  1.0000
  C   C2828     1.0  0.80653  0.43225  0.38790  1.0000
  C   C2829     1.0  0.84287  0.34885  0.34524  1.0000
  C   C2830     1.0  0.86605  0.39006  0.38117  1.0000
  C   C2831     1.0  0.85476  0.41074  0.29748  1.0000
  C   C2832     1.0  0.88843  0.45000  0.34002  1.0000
  C   C2833     1.0  0.80413  0.37345  0.41509  1.0000
  C   C2834     1.0  0.81773  0.38866  0.44433  1.0000
  C   C2835     1.0  0.79604  0.39677  0.44395  1.0000
  C   C2836     1.0  0.81940  0.43360  0.48138  1.0000
  C   C2837     1.0  0.86589  0.36937  0.43365  1.0000
  C   C2838     1.0  0.87159  0.38597  0.48984  1.0000
  C   C2839     1.0  0.84181  0.43194  0.38733  1.0000
  C   C2840     1.0  0.86945  0.44615  0.41483  1.0000
  C   C2841     1.0  0.79492  0.33715  0.50465  1.0000
  C   C2842     1.0  0.84223  0.38731  0.52177  1.0000
  C   C2843     1.0  0.81311  0.41575  0.55431  1.0000
  C   C2844     1.0  0.82031  0.43302  0.57132  1.0000
  C   C2845     1.0  0.84321  0.35900  0.55586  1.0000
  C   C2846     1.0  0.87242  0.38238  0.58674  1.0000
  C   C2847     1.0  0.85646  0.40700  0.48690  1.0000
  C   C2848     1.0  0.87464  0.43641  0.51964  1.0000
  C   C2849     1.0  0.79141  0.35943  0.59716  1.0000
  C   C2850     1.0  0.82250  0.39595  0.62535  1.0000
  C   C2851     1.0  0.79826  0.42419  0.64460  1.0000
  C   C2852     1.0  0.82607  0.44004  0.67435  1.0000
  C   C2853     1.0  0.84237  0.34668  0.67206  1.0000
  C   C2854     1.0  0.87057  0.39199  0.68461  1.0000
  C   C2855     1.0  0.84905  0.40503  0.59622  1.0000
  C   C2856     1.0  0.86322  0.42237  0.62353  1.0000
  C   C2857     1.0  0.79806  0.35753  0.70393  1.0000
  C   C2858     1.0  0.82741  0.39192  0.71415  1.0000
  C   C2859     1.0  0.76891  0.42526  0.74512  1.0000
  C   C2860     1.0  0.82686  0.43751  0.77844  1.0000
  C   C2861     1.0  0.85650  0.36251  0.76598  1.0000
  C   C2862     1.0  0.87720  0.39011  0.77943  1.0000
  C   C2863     1.0  0.85510  0.42938  0.69233  1.0000
  C   C2864     1.0  0.87384  0.41203  0.74075  1.0000
  C   C2865     1.0  0.81077  0.36620  0.80129  1.0000
  C   C2866     1.0  0.82617  0.39379  0.82504  1.0000
  C   C2867     1.0  0.78493  0.38920  0.84707  1.0000
  C   C2868     1.0  0.80928  0.43035  0.88506  1.0000
  C   C2869     1.0  0.84560  0.36583  0.82537  1.0000
  C   C2870     1.0  0.86250  0.39885  0.88017  1.0000
  C   C2871     1.0  0.85572  0.39683  0.80276  1.0000
  C   C2872     1.0  0.89117  0.44383  0.83129  1.0000
  C   C2873     1.0  0.79832  0.34044  0.89538  1.0000
  C   C2874     1.0  0.82117  0.38593  0.92212  1.0000
  C   C2875     1.0  0.80102  0.40302  0.94210  1.0000
  C   C2876     1.0  0.82480  0.41655  0.95608  1.0000
  C   C2877     1.0  0.84884  0.36922  0.93793  1.0000
  C   C2878     1.0  0.88240  0.40317  0.96808  1.0000
  C   C2879     1.0  0.83300  0.40143  0.90486  1.0000
  C   C2880     1.0  0.88124  0.43493  0.91977  1.0000
  C   C2881     1.0  0.90613  0.45082  0.00026  1.0000
  C   C2882     1.0  0.92728  0.10204  0.02389  1.0000
  C   C2883     1.0  0.89988  0.11112  0.06850  1.0000
  C   C2884     1.0  0.91543  0.14482  0.06787  1.0000
  C   C2885     1.0  0.93903  0.45477  0.03288  1.0000
  C   C2886     1.0  0.96356  0.08321  0.07618  1.0000
  C   C2887     1.0  0.95108  0.12323  0.97822  1.0000
  C   C2888     1.0  0.97554  0.13925  0.03392  1.0000
  C   C2889     1.0  0.89387  0.06324  0.08951  1.0000
  C   C2890     1.0  0.92319  0.09303  0.12370  1.0000
  C   C2891     1.0  0.90174  0.12119  0.13600  1.0000
  C   C2892     1.0  0.92633  0.13113  0.17127  1.0000
  C   C2893     1.0  0.94285  0.45631  0.14772  1.0000
  C   C2894     1.0  0.98356  0.07762  0.18976  1.0000
  C   C2895     1.0  0.94779  0.11482  0.10981  1.0000
  C   C2896     1.0  0.97236  0.14034  0.11277  1.0000
  C   C2897     1.0  0.89209  0.45474  0.21204  1.0000
  C   C2898     1.0  0.92251  0.06980  0.23079  1.0000
  C   C2899     1.0  0.90504  0.10138  0.24966  1.0000
  C   C2900     1.0  0.91902  0.14462  0.27783  1.0000
  C   C2901     1.0  0.95250  0.44981  0.26203  1.0000
  C   C2902     1.0  0.97194  0.05833  0.29335  1.0000
  C   C2903     1.0  0.96063  0.10653  0.16887  1.0000
  C   C2904     1.0  0.98702  0.11991  0.20229  1.0000
  C   C2905     1.0  0.86560  0.07408  0.30928  1.0000
  C   C2906     1.0  0.93986  0.07403  0.34314  1.0000
  C   C2907     1.0  0.91041  0.10430  0.33790  1.0000
  C   C2908     1.0  0.93784  0.13697  0.38129  1.0000
  C   C2909     1.0  0.94532  0.45682  0.34932  1.0000
  C   C2910     1.0  0.97171  0.09004  0.38260  1.0000
  C   C2911     1.0  0.92609  0.10620  0.30122  1.0000
  C   C2912     1.0  0.97870  0.14162  0.32681  1.0000
  C   C2913     1.0  0.89514  0.05748  0.39238  1.0000
  C   C2914     1.0  0.91711  0.07326  0.41201  1.0000
  C   C2915     1.0  0.92083  0.12762  0.47054  1.0000
  C   C2916     1.0  0.94635  0.12945  0.45722  1.0000
  C   C2917     1.0  0.94064  0.44003  0.45936  1.0000
  C   C2918     1.0  0.97759  0.08861  0.47333  1.0000
  C   C2919     1.0  0.93402  0.09580  0.39530  1.0000
  C   C2920     1.0  0.98020  0.12029  0.41955  1.0000
  C   C2921     1.0  0.92088  0.07677  0.50384  1.0000
  C   C2922     1.0  0.94216  0.07611  0.49255  1.0000
  C   C2923     1.0  0.91356  0.10672  0.55654  1.0000
  C   C2924     1.0  0.91894  0.13175  0.57525  1.0000
  C   C2925     1.0  0.93899  0.44766  0.53618  1.0000
  C   C2926     1.0  0.97909  0.06316  0.58929  1.0000
  C   C2927     1.0  0.95977  0.08937  0.49501  1.0000
  C   C2928     1.0  0.97123  0.14586  0.52388  1.0000
  C   C2929     1.0  0.88952  0.05925  0.61083  1.0000
  C   C2930     1.0  0.92361  0.08030  0.62806  1.0000
  C   C2931     1.0  0.92582  0.09736  0.66514  1.0000
  C   C2932     1.0  0.92047  0.12991  0.68702  1.0000
  C   C2933     1.0  0.96518  0.06439  0.65203  1.0000
  C   C2934     1.0  0.95587  0.09528  0.67699  1.0000
  C   C2935     1.0  0.94892  0.09910  0.61170  1.0000
  C   C2936     1.0  0.97504  0.12533  0.62984  1.0000
  C   C2937     1.0  0.89924  0.06787  0.70203  1.0000
  C   C2938     1.0  0.93328  0.09206  0.73072  1.0000
  C   C2939     1.0  0.89474  0.10633  0.74269  1.0000
  C   C2940     1.0  0.92726  0.13742  0.77399  1.0000
  C   C2941     1.0  0.94558  0.45341  0.75024  1.0000
  C   C2942     1.0  0.96863  0.07950  0.77110  1.0000
  C   C2943     1.0  0.95689  0.10400  0.71896  1.0000
  C   C2944     1.0  0.97400  0.13202  0.71828  1.0000
  C   C2945     1.0  0.88747  0.44089  0.80009  1.0000
  C   C2946     1.0  0.93053  0.08948  0.83595  1.0000
  C   C2947     1.0  0.89642  0.09413  0.84177  1.0000
  C   C2948     1.0  0.94800  0.12782  0.88374  1.0000
  C   C2949     1.0  0.94167  0.45073  0.86236  1.0000
  C   C2950     1.0  0.97761  0.08045  0.88154  1.0000
  C   C2951     1.0  0.96603  0.12343  0.80596  1.0000
  C   C2952     1.0  0.98433  0.14628  0.82428  1.0000
  C   C2953     1.0  0.90437  0.45088  0.90818  1.0000
  C   C2954     1.0  0.93334  0.08529  0.93705  1.0000
  C   C2955     1.0  0.90329  0.11016  0.94994  1.0000
  C   C2956     1.0  0.92342  0.14728  0.97513  1.0000
  C   C2957     1.0  0.96297  0.07736  0.94650  1.0000
  C   C2958     1.0  0.98785  0.08159  0.99167  1.0000
  C   C2959     1.0  0.95988  0.11734  0.90180  1.0000
  C   C2960     1.0  0.96079  0.14322  0.93442  1.0000
  C   C2961     1.0  0.89094  0.14156  0.97776  1.0000
  C   C2962     1.0  0.91009  0.17337  0.01592  1.0000
  C   C2963     1.0  0.90277  0.18949  0.03012  1.0000
  C   C2964     1.0  0.92519  0.22163  0.07834  1.0000
  C   C2965     1.0  0.95294  0.15390  0.05000  1.0000
  C   C2966     1.0  0.97119  0.17782  0.06800  1.0000
  C   C2967     1.0  0.95321  0.19614  0.01054  1.0000
  C   C2968     1.0  0.99130  0.23886  0.00614  1.0000
  C   C2969     1.0  0.90289  0.15486  0.08695  1.0000
  C   C2970     1.0  0.92854  0.19262  0.11864  1.0000
  C   C2971     1.0  0.88462  0.20331  0.16793  1.0000
  C   C2972     1.0  0.91558  0.20791  0.17794  1.0000
  C   C2973     1.0  0.93910  0.16063  0.14805  1.0000
  C   C2974     1.0  0.98672  0.17888  0.18602  1.0000
  C   C2975     1.0  0.95111  0.21593  0.07677  1.0000
  C   C2976     1.0  0.96572  0.25107  0.12030  1.0000
  C   C2977     1.0  0.88232  0.16177  0.19333  1.0000
  C   C2978     1.0  0.91716  0.17529  0.21569  1.0000
  C   C2979     1.0  0.88790  0.20881  0.26032  1.0000
  C   C2980     1.0  0.95655  0.22719  0.28028  1.0000
  C   C2981     1.0  0.97263  0.14971  0.25683  1.0000
  C   C2982     1.0  0.96630  0.20660  0.25764  1.0000
  C   C2983     1.0  0.97143  0.19694  0.20202  1.0000
  C   C2984     1.0  0.97457  0.23716  0.23127  1.0000
  C   C2985     1.0  0.89080  0.16247  0.30030  1.0000
  C   C2986     1.0  0.92553  0.19022  0.32486  1.0000
  C   C2987     1.0  0.90166  0.20800  0.38040  1.0000
  C   C2988     1.0  0.94009  0.22633  0.36149  1.0000
  C   C2989     1.0  0.95967  0.16320  0.34008  1.0000
  C   C2990     1.0  1.00000  0.17934  0.37942  1.0000
  C   C2991     1.0  0.94857  0.21127  0.31860  1.0000
  C   C2992     1.0  0.96158  0.20397  0.31084  1.0000
  C   C2993     1.0  0.88363  0.16602  0.38764  1.0000
  C   C2994     1.0  0.91756  0.18102  0.43565  1.0000
  C   C2995     1.0  0.91127  0.20520  0.45915  1.0000
  C   C2996     1.0  0.92302  0.24450  0.47171  1.0000
  C   C2997     1.0  0.92100  0.14825  0.43674  1.0000
  C   C2998     1.0  0.98016  0.19992  0.47577  1.0000
  C   C2999     1.0  0.93778  0.22780  0.39818  1.0000
  C   C3000     1.0  0.98444  0.23287  0.41345  1.0000
  C   C3001     1.0  0.89916  0.15450  0.50546  1.0000
  C   C3002     1.0  0.91992  0.18451  0.52524  1.0000
  C   C3003     1.0  0.89408  0.20997  0.55581  1.0000
  C   C3004     1.0  0.90901  0.21905  0.57456  1.0000
  C   C3005     1.0  0.97930  0.16326  0.53627  1.0000
  C   C3006     1.0  0.97352  0.17936  0.59217  1.0000
  C   C3007     1.0  0.94002  0.21853  0.48844  1.0000
  C   C3008     1.0  0.98612  0.24251  0.52614  1.0000
  C   C3009     1.0  0.89664  0.13918  0.60764  1.0000
  C   C3010     1.0  0.93931  0.18685  0.62989  1.0000
  C   C3011     1.0  0.88714  0.21345  0.65632  1.0000
  C   C3012     1.0  0.92364  0.23716  0.67497  1.0000
  C   C3013     1.0  0.94070  0.14603  0.64931  1.0000
  C   C3014     1.0  0.93797  0.16577  0.67567  1.0000
  C   C3015     1.0  0.95040  0.19116  0.60309  1.0000
  C   C3016     1.0  0.98051  0.24040  0.62890  1.0000
  C   C3017     1.0  0.89975  0.15110  0.70724  1.0000
  C   C3018     1.0  0.93172  0.18576  0.72880  1.0000
  C   C3019     1.0  0.92282  0.20879  0.74203  1.0000
  C   C3020     1.0  0.92368  0.21458  0.77211  1.0000
  C   C3021     1.0  0.95259  0.14562  0.75405  1.0000
  C   C3022     1.0  0.95580  0.17299  0.76987  1.0000
  C   C3023     1.0  0.95762  0.21070  0.70302  1.0000
  C   C3024     1.0  0.97722  0.23801  0.72482  1.0000
  C   C3025     1.0  0.88962  0.17020  0.78303  1.0000
  C   C3026     1.0  0.92429  0.18413  0.84593  1.0000
  C   C3027     1.0  0.91739  0.20640  0.85806  1.0000
  C   C3028     1.0  0.93275  0.24678  0.87315  1.0000
  C   C3029     1.0  0.96220  0.15205  0.85325  1.0000
  C   C3030     1.0  0.98766  0.16774  0.87316  1.0000
  C   C3031     1.0  0.94609  0.21037  0.79390  1.0000
  C   C3032     1.0  0.98613  0.22093  0.82783  1.0000
  C   C3033     1.0  0.88753  0.14506  0.90060  1.0000
  C   C3034     1.0  0.92623  0.18028  0.93460  1.0000
  C   C3035     1.0  0.87526  0.19910  0.94428  1.0000
  C   C3036     1.0  0.93520  0.22288  0.98276  1.0000
  C   C3037     1.0  0.92424  0.14738  0.92898  1.0000
  C   C3038     1.0  0.98133  0.16551  0.98574  1.0000
  C   C3039     1.0  0.95046  0.19041  0.88825  1.0000
  C   C3040     1.0  0.97765  0.24315  0.91129  1.0000
  C   C3041     1.0  0.90307  0.25140  0.98441  1.0000
  C   C3042     1.0  0.91960  0.27815  0.03350  1.0000
  C   C3043     1.0  0.90592  0.30040  0.06157  1.0000
  C   C3044     1.0  0.92646  0.31554  0.07836  1.0000
  C   C3045     1.0  0.96242  0.26292  0.06378  1.0000
  C   C3046     1.0  0.96195  0.27525  0.07973  1.0000
  C   C3047     1.0  0.95906  0.30898  0.01459  1.0000
  C   C3048     1.0  0.96682  0.33800  0.03656  1.0000
  C   C3049     1.0  0.90368  0.24701  0.07759  1.0000
  C   C3050     1.0  0.91013  0.27275  0.13011  1.0000
  C   C3051     1.0  0.91890  0.32323  0.15118  1.0000
  C   C3052     1.0  0.92722  0.34156  0.18105  1.0000
  C   C3053     1.0  0.94472  0.26509  0.15527  1.0000
  C   C3054     1.0  0.96915  0.29682  0.16354  1.0000
  C   C3055     1.0  0.92856  0.30555  0.08199  1.0000
  C   C3056     1.0  0.97937  0.32211  0.11608  1.0000
  C   C3057     1.0  0.89370  0.25289  0.21168  1.0000
  C   C3058     1.0  0.90915  0.26854  0.23034  1.0000
  C   C3059     1.0  0.90732  0.31228  0.25538  1.0000
  C   C3060     1.0  0.92509  0.33817  0.28042  1.0000
  C   C3061     1.0  0.93848  0.27419  0.24886  1.0000
  C   C3062     1.0  0.96817  0.27243  0.28163  1.0000
  C   C3063     1.0  0.93672  0.30427  0.19602  1.0000
  C   C3064     1.0  0.98994  0.34017  0.22749  1.0000
  C   C3065     1.0  0.93901  0.25788  0.28961  1.0000
  C   C3066     1.0  0.91211  0.28123  0.32234  1.0000
  C   C3067     1.0  0.90046  0.30682  0.37314  1.0000
  C   C3068     1.0  0.91824  0.34643  0.36843  1.0000
  C   C3069     1.0  0.94288  0.26138  0.35862  1.0000
  C   C3070     1.0  0.95539  0.31010  0.38527  1.0000
  C   C3071     1.0  0.95206  0.32722  0.31451  1.0000
  C   C3072     1.0  0.97599  0.31196  0.32012  1.0000
  C   C3073     1.0  0.90616  0.28066  0.38563  1.0000
  C   C3074     1.0  0.93377  0.28152  0.42772  1.0000
  C   C3075     1.0  0.91605  0.31675  0.44161  1.0000
  C   C3076     1.0  0.93058  0.32802  0.46201  1.0000
  C   C3077     1.0  0.95463  0.24004  0.42321  1.0000
  C   C3078     1.0  0.98415  0.26721  0.46555  1.0000
  C   C3079     1.0  0.93319  0.30451  0.39741  1.0000
  C   C3080     1.0  0.95708  0.33235  0.41638  1.0000
  C   C3081     1.0  0.90227  0.25518  0.50705  1.0000
  C   C3082     1.0  0.93872  0.28661  0.52466  1.0000
  C   C3083     1.0  0.90143  0.30422  0.56890  1.0000
  C   C3084     1.0  0.92444  0.33008  0.58232  1.0000
  C   C3085     1.0  0.94614  0.25939  0.54992  1.0000
  C   C3086     1.0  0.96473  0.28209  0.57199  1.0000
  C   C3087     1.0  0.96004  0.32483  0.48938  1.0000
  C   C3088     1.0  0.98100  0.34180  0.51698  1.0000
  C   C3089     1.0  0.91244  0.22826  0.59164  1.0000
  C   C3090     1.0  0.93537  0.28348  0.62190  1.0000
  C   C3091     1.0  0.91061  0.31263  0.64212  1.0000
  C   C3092     1.0  0.93287  0.32932  0.66668  1.0000
  C   C3093     1.0  0.94768  0.26705  0.63823  1.0000
  C   C3094     1.0  0.96973  0.28788  0.68229  1.0000
  C   C3095     1.0  0.95398  0.28952  0.59420  1.0000
  C   C3096     1.0  0.98392  0.33068  0.62014  1.0000
  C   C3097     1.0  0.89941  0.24532  0.69640  1.0000
  C   C3098     1.0  0.93763  0.26124  0.72266  1.0000
  C   C3099     1.0  0.88815  0.32138  0.75830  1.0000
  C   C3100     1.0  0.91570  0.32707  0.76235  1.0000
  C   C3101     1.0  0.93476  0.27326  0.75270  1.0000
  C   C3102     1.0  0.97127  0.27801  0.76840  1.0000
  C   C3103     1.0  0.95084  0.30911  0.69569  1.0000
  C   C3104     1.0  0.98036  0.34870  0.72522  1.0000
  C   C3105     1.0  0.90447  0.24613  0.78493  1.0000
  C   C3106     1.0  0.93054  0.29199  0.83287  1.0000
  C   C3107     1.0  0.90637  0.29230  0.85675  1.0000
  C   C3108     1.0  0.93849  0.34459  0.87252  1.0000
  C   C3109     1.0  0.94017  0.23642  0.86883  1.0000
  C   C3110     1.0  0.97359  0.28261  0.86544  1.0000
  C   C3111     1.0  0.94419  0.29503  0.81372  1.0000
  C   C3112     1.0  0.96877  0.32143  0.83215  1.0000
  C   C3113     1.0  0.89930  0.26134  0.89856  1.0000
  C   C3114     1.0  0.92675  0.26950  0.93023  1.0000
  C   C3115     1.0  0.87655  0.32625  0.92476  1.0000
  C   C3116     1.0  0.92224  0.32807  0.97030  1.0000
  C   C3117     1.0  0.94675  0.26435  0.95568  1.0000
  C   C3118     1.0  0.96617  0.28458  0.99513  1.0000
  C   C3119     1.0  0.93899  0.30841  0.89733  1.0000
  C   C3120     1.0  0.96962  0.34889  0.93037  1.0000
  C   C3121     1.0  0.88827  0.35812  0.00193  1.0000
  C   C3122     1.0  0.92714  0.38425  0.01896  1.0000
  C   C3123     1.0  0.90595  0.40882  0.05569  1.0000
  C   C3124     1.0  0.92190  0.44262  0.07489  1.0000
  C   C3125     1.0  0.94418  0.36864  0.05076  1.0000
  C   C3126     1.0  0.97748  0.38976  0.09391  1.0000
  C   C3127     1.0  0.95178  0.41641  0.99865  1.0000
  C   C3128     1.0  0.94862  0.43606  0.01794  1.0000
  C   C3129     1.0  0.88828  0.35448  0.11088  1.0000
  C   C3130     1.0  0.91808  0.38728  0.12873  1.0000
  C   C3131     1.0  0.91166  0.39285  0.14651  1.0000
  C   C3132     1.0  0.92684  0.42874  0.16913  1.0000
  C   C3133     1.0  0.95123  0.34863  0.14286  1.0000
  C   C3134     1.0  0.97215  0.38337  0.18707  1.0000
  C   C3135     1.0  0.94087  0.40362  0.09007  1.0000
  C   C3136     1.0  0.98789  0.45157  0.11435  1.0000
  C   C3137     1.0  0.90840  0.34484  0.20460  1.0000
  C   C3138     1.0  0.93222  0.38776  0.21576  1.0000
  C   C3139     1.0  0.89172  0.41152  0.25410  1.0000
  C   C3140     1.0  0.89605  0.42897  0.27704  1.0000
  C   C3141     1.0  0.95499  0.34792  0.25671  1.0000
  C   C3142     1.0  0.97870  0.38620  0.29326  1.0000
  C   C3143     1.0  0.93414  0.40027  0.20726  1.0000
  C   C3144     1.0  0.96527  0.43918  0.23061  1.0000
  C   C3145     1.0  0.88635  0.35681  0.31008  1.0000
  C   C3146     1.0  0.91779  0.39226  0.32117  1.0000
  C   C3147     1.0  0.90517  0.42605  0.34872  1.0000
  C   C3148     1.0  0.92119  0.41021  0.37334  1.0000
  C   C3149     1.0  0.93232  0.35923  0.33608  1.0000
  C   C3150     1.0  0.96548  0.38927  0.37013  1.0000
  C   C3151     1.0  0.93988  0.40953  0.29411  1.0000
  C   C3152     1.0  0.97472  0.43182  0.31263  1.0000
  C   C3153     1.0  0.90202  0.37457  0.38993  1.0000
  C   C3154     1.0  0.93616  0.38052  0.43194  1.0000
  C   C3155     1.0  0.89155  0.40854  0.44053  1.0000
  C   C3156     1.0  0.92909  0.41219  0.48052  1.0000
  C   C3157     1.0  0.97146  0.38546  0.44476  1.0000
  C   C3158     1.0  0.98626  0.36599  0.48672  1.0000
  C   C3159     1.0  0.95149  0.41731  0.40157  1.0000
  C   C3160     1.0  0.99215  0.43435  0.41923  1.0000
  C   C3161     1.0  0.87946  0.37121  0.50683  1.0000
  C   C3162     1.0  0.94797  0.38727  0.52976  1.0000
  C   C3163     1.0  0.89912  0.40517  0.53979  1.0000
  C   C3164     1.0  0.91891  0.42913  0.56023  1.0000
  C   C3165     1.0  0.94333  0.35177  0.56619  1.0000
  C   C3166     1.0  0.97814  0.36184  0.55061  1.0000
  C   C3167     1.0  0.95309  0.41581  0.49281  1.0000
  C   C3168     1.0  0.95659  0.43183  0.52556  1.0000
  C   C3169     1.0  0.90871  0.35933  0.59058  1.0000
  C   C3170     1.0  0.94558  0.34913  0.61231  1.0000
  C   C3171     1.0  0.90993  0.39784  0.64599  1.0000
  C   C3172     1.0  0.91903  0.41923  0.66820  1.0000
  C   C3173     1.0  0.95768  0.33596  0.65159  1.0000
  C   C3174     1.0  0.97271  0.37844  0.67882  1.0000
  C   C3175     1.0  0.96064  0.39464  0.59949  1.0000
  C   C3176     1.0  0.97555  0.40932  0.63178  1.0000
  C   C3177     1.0  0.89132  0.34672  0.72136  1.0000
  C   C3178     1.0  0.93460  0.39551  0.71805  1.0000
  C   C3179     1.0  0.89840  0.40213  0.75701  1.0000
  C   C3180     1.0  0.90437  0.43545  0.77425  1.0000
  C   C3181     1.0  0.95711  0.36707  0.74854  1.0000
  C   C3182     1.0  0.96480  0.38144  0.76853  1.0000
  C   C3183     1.0  0.93884  0.42673  0.68339  1.0000
  C   C3184     1.0  0.97924  0.43674  0.71887  1.0000
  C   C3185     1.0  0.90486  0.35308  0.80102  1.0000
  C   C3186     1.0  0.92021  0.38253  0.83111  1.0000
  C   C3187     1.0  0.92022  0.40037  0.84227  1.0000
  C   C3188     1.0  0.93374  0.42571  0.87298  1.0000
  C   C3189     1.0  0.95672  0.36683  0.84287  1.0000
  C   C3190     1.0  0.97474  0.39176  0.87916  1.0000
  C   C3191     1.0  0.93419  0.41581  0.80718  1.0000
  C   C3192     1.0  0.96202  0.41067  0.82874  1.0000
  C   C3193     1.0  0.90979  0.36789  0.90654  1.0000
  C   C3194     1.0  0.92418  0.38962  0.92412  1.0000
  C   C3195     1.0  0.90724  0.39886  0.95044  1.0000
  C   C3196     1.0  0.92875  0.40158  0.96831  1.0000
  C   C3197     1.0  0.94668  0.33597  0.94812  1.0000
  C   C3198     1.0  0.96646  0.38836  0.98870  1.0000
  C   C3199     1.0  0.95209  0.41039  0.89958  1.0000
  C   C3200     1.0  0.99020  0.44122  0.90435  1.0000
  Au  Au1       1.0  0.29004  0.41384  0.29797  1.0000
  Au  Au2       1.0  0.17340  0.48008  0.33838  1.0000
  Au  Au3       1.0  0.24339  0.48008  0.29797  1.0000
  Au  Au4       1.0  0.19673  0.54632  0.29797  1.0000
  Au  Au5       1.0  0.22006  0.41384  0.33838  1.0000
  Au  Au6       1.0  0.22006  0.41384  0.41919  1.0000
  Au  Au7       1.0  0.29004  0.41384  0.37878  1.0000
  Au  Au8       1.0  0.24339  0.48008  0.37878  1.0000
  Au  Au9       1.0  0.29004  0.41384  0.45959  1.0000
  Au  Au10      1.0  0.12674  0.54632  0.41919  1.0000
  Au  Au11      1.0  0.19673  0.54632  0.37878  1.0000
  Au  Au12      1.0  0.15007  0.61256  0.37878  1.0000
  Au  Au13      1.0  0.17340  0.48008  0.41919  1.0000
  Au  Au14      1.0  0.17340  0.48008  0.50000  1.0000
  Au  Au15      1.0  0.24339  0.48008  0.45959  1.0000
  Au  Au16      1.0  0.19673  0.54632  0.45959  1.0000
  Au  Au17      1.0  0.22006  0.41384  0.50000  1.0000
  Au  Au18      1.0  0.22006  0.41384  0.58081  1.0000
  Au  Au19      1.0  0.29004  0.41384  0.54041  1.0000
  Au  Au20      1.0  0.24339  0.48008  0.54041  1.0000
  Au  Au21      1.0  0.29004  0.41384  0.62122  1.0000
  Au  Au22      1.0  0.15007  0.61256  0.45959  1.0000
  Au  Au23      1.0  0.12674  0.54632  0.50000  1.0000
  Au  Au24      1.0  0.12674  0.54632  0.58081  1.0000
  Au  Au25      1.0  0.19673  0.54632  0.54041  1.0000
  Au  Au26      1.0  0.15007  0.61256  0.54041  1.0000
  Au  Au27      1.0  0.17340  0.48008  0.58081  1.0000
  Au  Au28      1.0  0.17340  0.48008  0.66162  1.0000
  Au  Au29      1.0  0.24339  0.48008  0.62122  1.0000
  Au  Au30      1.0  0.19673  0.54632  0.62122  1.0000
  Au  Au31      1.0  0.22006  0.41384  0.66162  1.0000
  Au  Au32      1.0  0.29004  0.41384  0.70203  1.0000
  Au  Au33      1.0  0.24339  0.48008  0.70203  1.0000
  Au  Au34      1.0  0.15007  0.61256  0.62122  1.0000
  Au  Au35      1.0  0.19673  0.54632  0.70203  1.0000
  Au  Au36      1.0  0.43001  0.41384  0.21716  1.0000
  Au  Au37      1.0  0.31337  0.48008  0.25756  1.0000
  Au  Au38      1.0  0.38336  0.48008  0.21716  1.0000
  Au  Au39      1.0  0.33670  0.54632  0.21716  1.0000
  Au  Au40      1.0  0.36003  0.41384  0.25756  1.0000
  Au  Au41      1.0  0.36003  0.41384  0.33838  1.0000
  Au  Au42      1.0  0.43001  0.41384  0.29797  1.0000
  Au  Au43      1.0  0.38336  0.48008  0.29797  1.0000
  Au  Au44      1.0  0.43001  0.41384  0.37878  1.0000
  Au  Au45      1.0  0.22006  0.61256  0.25756  1.0000
  Au  Au46      1.0  0.29004  0.61256  0.21716  1.0000
  Au  Au47      1.0  0.24339  0.67880  0.21716  1.0000
  Au  Au48      1.0  0.26672  0.54632  0.25756  1.0000
  Au  Au49      1.0  0.26672  0.54632  0.33838  1.0000
  Au  Au50      1.0  0.33670  0.54632  0.29797  1.0000
  Au  Au51      1.0  0.29004  0.61256  0.29797  1.0000
  Au  Au52      1.0  0.31337  0.48008  0.33838  1.0000
  Au  Au53      1.0  0.31337  0.48008  0.41919  1.0000
  Au  Au54      1.0  0.38336  0.48008  0.37878  1.0000
  Au  Au55      1.0  0.33670  0.54632  0.37878  1.0000
  Au  Au56      1.0  0.36003  0.41384  0.41919  1.0000
  Au  Au57      1.0  0.36003  0.41384  0.50000  1.0000
  Au  Au58      1.0  0.43001  0.41384  0.45959  1.0000
  Au  Au59      1.0  0.38336  0.48008  0.45959  1.0000
  Au  Au60      1.0  0.43001  0.41384  0.54041  1.0000
  Au  Au61      1.0  0.17340  0.67880  0.33838  1.0000
  Au  Au62      1.0  0.24339  0.67880  0.29797  1.0000
  Au  Au63      1.0  0.19673  0.74504  0.29797  1.0000
  Au  Au64      1.0  0.22006  0.61256  0.33838  1.0000
  Au  Au65      1.0  0.22006  0.61256  0.41919  1.0000
  Au  Au66      1.0  0.29004  0.61256  0.37878  1.0000
  Au  Au67      1.0  0.24339  0.67880  0.37878  1.0000
  Au  Au68      1.0  0.26672  0.54632  0.41919  1.0000
  Au  Au69      1.0  0.26672  0.54632  0.50000  1.0000
  Au  Au70      1.0  0.33670  0.54632  0.45959  1.0000
  Au  Au71      1.0  0.29004  0.61256  0.45959  1.0000
  Au  Au72      1.0  0.31337  0.48008  0.50000  1.0000
  Au  Au73      1.0  0.31337  0.48008  0.58081  1.0000
  Au  Au74      1.0  0.38336  0.48008  0.54041  1.0000
  Au  Au75      1.0  0.33670  0.54632  0.54041  1.0000
  Au  Au76      1.0  0.36003  0.41384  0.58081  1.0000
  Au  Au77      1.0  0.36003  0.41384  0.66162  1.0000
  Au  Au78      1.0  0.43001  0.41384  0.62122  1.0000
  Au  Au79      1.0  0.38336  0.48008  0.62122  1.0000
  Au  Au80      1.0  0.43001  0.41384  0.70203  1.0000
  Au  Au81      1.0  0.19673  0.74504  0.37878  1.0000
  Au  Au82      1.0  0.17340  0.67880  0.41919  1.0000
  Au  Au83      1.0  0.17340  0.67880  0.50000  1.0000
  Au  Au84      1.0  0.24339  0.67880  0.45959  1.0000
  Au  Au85      1.0  0.19673  0.74504  0.45959  1.0000
  Au  Au86      1.0  0.22006  0.61256  0.50000  1.0000
  Au  Au87      1.0  0.22006  0.61256  0.58081  1.0000
  Au  Au88      1.0  0.29004  0.61256  0.54041  1.0000
  Au  Au89      1.0  0.24339  0.67880  0.54041  1.0000
  Au  Au90      1.0  0.26672  0.54632  0.58081  1.0000
  Au  Au91      1.0  0.26672  0.54632  0.66162  1.0000
  Au  Au92      1.0  0.33670  0.54632  0.62122  1.0000
  Au  Au93      1.0  0.29004  0.61256  0.62122  1.0000
  Au  Au94      1.0  0.31337  0.48008  0.66162  1.0000
  Au  Au95      1.0  0.31337  0.48008  0.74244  1.0000
  Au  Au96      1.0  0.38336  0.48008  0.70203  1.0000
  Au  Au97      1.0  0.33670  0.54632  0.70203  1.0000
  Au  Au98      1.0  0.36003  0.41384  0.74244  1.0000
  Au  Au99      1.0  0.43001  0.41384  0.78284  1.0000
  Au  Au100     1.0  0.38336  0.48008  0.78284  1.0000
  Au  Au101     1.0  0.19673  0.74504  0.54041  1.0000
  Au  Au102     1.0  0.17340  0.67880  0.58081  1.0000
  Au  Au103     1.0  0.17340  0.67880  0.66162  1.0000
  Au  Au104     1.0  0.24339  0.67880  0.62122  1.0000
  Au  Au105     1.0  0.19673  0.74504  0.62122  1.0000
  Au  Au106     1.0  0.22006  0.61256  0.66162  1.0000
  Au  Au107     1.0  0.22006  0.61256  0.74244  1.0000
  Au  Au108     1.0  0.29004  0.61256  0.70203  1.0000
  Au  Au109     1.0  0.24339  0.67880  0.70203  1.0000
  Au  Au110     1.0  0.26672  0.54632  0.74244  1.0000
  Au  Au111     1.0  0.33670  0.54632  0.78284  1.0000
  Au  Au112     1.0  0.29004  0.61256  0.78284  1.0000
  Au  Au113     1.0  0.19673  0.74504  0.70203  1.0000
  Au  Au114     1.0  0.24339  0.67880  0.78284  1.0000
  Au  Au115     1.0  0.45334  0.48008  0.17675  1.0000
  Au  Au116     1.0  0.52333  0.48008  0.13635  1.0000
  Au  Au117     1.0  0.47667  0.54632  0.13635  1.0000
  Au  Au118     1.0  0.50000  0.41384  0.17675  1.0000
  Au  Au119     1.0  0.50000  0.41384  0.25756  1.0000
  Au  Au120     1.0  0.56999  0.41384  0.21716  1.0000
  Au  Au121     1.0  0.52333  0.48008  0.21716  1.0000
  Au  Au122     1.0  0.56999  0.41384  0.29797  1.0000
  Au  Au123     1.0  0.36003  0.61256  0.17675  1.0000
  Au  Au124     1.0  0.43001  0.61256  0.13635  1.0000
  Au  Au125     1.0  0.38336  0.67880  0.13635  1.0000
  Au  Au126     1.0  0.40669  0.54632  0.17675  1.0000
  Au  Au127     1.0  0.40669  0.54632  0.25756  1.0000
  Au  Au128     1.0  0.47667  0.54632  0.21716  1.0000
  Au  Au129     1.0  0.43001  0.61256  0.21716  1.0000
  Au  Au130     1.0  0.45334  0.48008  0.25756  1.0000
  Au  Au131     1.0  0.45334  0.48008  0.33838  1.0000
  Au  Au132     1.0  0.52333  0.48008  0.29797  1.0000
  Au  Au133     1.0  0.47667  0.54632  0.29797  1.0000
  Au  Au134     1.0  0.50000  0.41384  0.33838  1.0000
  Au  Au135     1.0  0.50000  0.41384  0.41919  1.0000
  Au  Au136     1.0  0.56999  0.41384  0.37878  1.0000
  Au  Au137     1.0  0.52333  0.48008  0.37878  1.0000
  Au  Au138     1.0  0.56999  0.41384  0.45959  1.0000
  Au  Au139     1.0  0.31337  0.67880  0.17675  1.0000
  Au  Au140     1.0  0.31337  0.67880  0.25756  1.0000
  Au  Au141     1.0  0.38336  0.67880  0.21716  1.0000
  Au  Au142     1.0  0.33670  0.74504  0.21716  1.0000
  Au  Au143     1.0  0.36003  0.61256  0.25756  1.0000
  Au  Au144     1.0  0.36003  0.61256  0.33838  1.0000
  Au  Au145     1.0  0.43001  0.61256  0.29797  1.0000
  Au  Au146     1.0  0.38336  0.67880  0.29797  1.0000
  Au  Au147     1.0  0.40669  0.54632  0.33838  1.0000
  Au  Au148     1.0  0.40669  0.54632  0.41919  1.0000
  Au  Au149     1.0  0.47667  0.54632  0.37878  1.0000
  Au  Au150     1.0  0.43001  0.61256  0.37878  1.0000
  Au  Au151     1.0  0.45334  0.48008  0.41919  1.0000
  Au  Au152     1.0  0.45334  0.48008  0.50000  1.0000
  Au  Au153     1.0  0.52333  0.48008  0.45959  1.0000
  Au  Au154     1.0  0.47667  0.54632  0.45959  1.0000
  Au  Au155     1.0  0.50000  0.41384  0.50000  1.0000
  Au  Au156     1.0  0.50000  0.41384  0.58081  1.0000
  Au  Au157     1.0  0.56999  0.41384  0.54041  1.0000
  Au  Au158     1.0  0.52333  0.48008  0.54041  1.0000
  Au  Au159     1.0  0.56999  0.41384  0.62122  1.0000
  Au  Au160     1.0  0.26672  0.74504  0.25756  1.0000
  Au  Au161     1.0  0.26672  0.74504  0.33838  1.0000
  Au  Au162     1.0  0.33670  0.74504  0.29797  1.0000
  Au  Au163     1.0  0.29004  0.81128  0.29797  1.0000
  Au  Au164     1.0  0.31337  0.67880  0.33838  1.0000
  Au  Au165     1.0  0.31337  0.67880  0.41919  1.0000
  Au  Au166     1.0  0.38336  0.67880  0.37878  1.0000
  Au  Au167     1.0  0.33670  0.74504  0.37878  1.0000
  Au  Au168     1.0  0.36003  0.61256  0.41919  1.0000
  Au  Au169     1.0  0.36003  0.61256  0.50000  1.0000
  Au  Au170     1.0  0.43001  0.61256  0.45959  1.0000
  Au  Au171     1.0  0.38336  0.67880  0.45959  1.0000
  Au  Au172     1.0  0.40669  0.54632  0.50000  1.0000
  Au  Au173     1.0  0.40669  0.54632  0.58081  1.0000
  Au  Au174     1.0  0.47667  0.54632  0.54041  1.0000
  Au  Au175     1.0  0.43001  0.61256  0.54041  1.0000
  Au  Au176     1.0  0.45334  0.48008  0.58081  1.0000
  Au  Au177     1.0  0.45334  0.48008  0.66162  1.0000
  Au  Au178     1.0  0.52333  0.48008  0.62122  1.0000
  Au  Au179     1.0  0.47667  0.54632  0.62122  1.0000
  Au  Au180     1.0  0.50000  0.41384  0.66162  1.0000
  Au  Au181     1.0  0.50000  0.41384  0.74244  1.0000
  Au  Au182     1.0  0.56999  0.41384  0.70203  1.0000
  Au  Au183     1.0  0.52333  0.48008  0.70203  1.0000
  Au  Au184     1.0  0.56999  0.41384  0.78284  1.0000
  Au  Au185     1.0  0.22006  0.81128  0.33838  1.0000
  Au  Au186     1.0  0.22006  0.81128  0.41919  1.0000
  Au  Au187     1.0  0.29004  0.81128  0.37878  1.0000
  Au  Au188     1.0  0.24339  0.87752  0.37878  1.0000
  Au  Au189     1.0  0.26672  0.74504  0.41919  1.0000
  Au  Au190     1.0  0.26672  0.74504  0.50000  1.0000
  Au  Au191     1.0  0.33670  0.74504  0.45959  1.0000
  Au  Au192     1.0  0.29004  0.81128  0.45959  1.0000
  Au  Au193     1.0  0.31337  0.67880  0.50000  1.0000
  Au  Au194     1.0  0.31337  0.67880  0.58081  1.0000
  Au  Au195     1.0  0.38336  0.67880  0.54041  1.0000
  Au  Au196     1.0  0.33670  0.74504  0.54041  1.0000
  Au  Au197     1.0  0.36003  0.61256  0.58081  1.0000
  Au  Au198     1.0  0.36003  0.61256  0.66162  1.0000
  Au  Au199     1.0  0.43001  0.61256  0.62122  1.0000
  Au  Au200     1.0  0.38336  0.67880  0.62122  1.0000
  Au  Au201     1.0  0.40669  0.54632  0.66162  1.0000
  Au  Au202     1.0  0.40669  0.54632  0.74244  1.0000
  Au  Au203     1.0  0.47667  0.54632  0.70203  1.0000
  Au  Au204     1.0  0.43001  0.61256  0.70203  1.0000
  Au  Au205     1.0  0.45334  0.48008  0.74244  1.0000
  Au  Au206     1.0  0.45334  0.48008  0.82325  1.0000
  Au  Au207     1.0  0.52333  0.48008  0.78284  1.0000
  Au  Au208     1.0  0.47667  0.54632  0.78284  1.0000
  Au  Au209     1.0  0.50000  0.41384  0.82325  1.0000
  Au  Au210     1.0  0.52333  0.48008  0.86365  1.0000
  Au  Au211     1.0  0.24339  0.87752  0.45959  1.0000
  Au  Au212     1.0  0.22006  0.81128  0.50000  1.0000
  Au  Au213     1.0  0.22006  0.81128  0.58081  1.0000
  Au  Au214     1.0  0.29004  0.81128  0.54041  1.0000
  Au  Au215     1.0  0.24339  0.87752  0.54041  1.0000
  Au  Au216     1.0  0.26672  0.74504  0.58081  1.0000
  Au  Au217     1.0  0.26672  0.74504  0.66162  1.0000
  Au  Au218     1.0  0.33670  0.74504  0.62122  1.0000
  Au  Au219     1.0  0.29004  0.81128  0.62122  1.0000
  Au  Au220     1.0  0.31337  0.67880  0.66162  1.0000
  Au  Au221     1.0  0.31337  0.67880  0.74244  1.0000
  Au  Au222     1.0  0.38336  0.67880  0.70203  1.0000
  Au  Au223     1.0  0.33670  0.74504  0.70203  1.0000
  Au  Au224     1.0  0.36003  0.61256  0.74244  1.0000
  Au  Au225     1.0  0.36003  0.61256  0.82325  1.0000
  Au  Au226     1.0  0.43001  0.61256  0.78284  1.0000
  Au  Au227     1.0  0.38336  0.67880  0.78284  1.0000
  Au  Au228     1.0  0.40669  0.54632  0.82325  1.0000
  Au  Au229     1.0  0.47667  0.54632  0.86365  1.0000
  Au  Au230     1.0  0.43001  0.61256  0.86365  1.0000
  Au  Au231     1.0  0.24339  0.87752  0.62122  1.0000
  Au  Au232     1.0  0.22006  0.81128  0.66162  1.0000
  Au  Au233     1.0  0.29004  0.81128  0.70203  1.0000
  Au  Au234     1.0  0.26672  0.74504  0.74244  1.0000
  Au  Au235     1.0  0.33670  0.74504  0.78284  1.0000
  Au  Au236     1.0  0.31337  0.67880  0.82325  1.0000
  Au  Au237     1.0  0.38336  0.67880  0.86365  1.0000
  Au  Au238     1.0  0.54666  0.54632  0.17675  1.0000
  Au  Au239     1.0  0.61664  0.54632  0.13635  1.0000
  Au  Au240     1.0  0.56999  0.61256  0.13635  1.0000
  Au  Au241     1.0  0.59331  0.48008  0.17675  1.0000
  Au  Au242     1.0  0.59331  0.48008  0.25756  1.0000
  Au  Au243     1.0  0.66330  0.48008  0.21716  1.0000
  Au  Au244     1.0  0.61664  0.54632  0.21716  1.0000
  Au  Au245     1.0  0.63997  0.41384  0.25756  1.0000
  Au  Au246     1.0  0.63997  0.41384  0.33838  1.0000
  Au  Au247     1.0  0.70996  0.41384  0.29797  1.0000
  Au  Au248     1.0  0.66330  0.48008  0.29797  1.0000
  Au  Au249     1.0  0.70996  0.41384  0.37878  1.0000
  Au  Au250     1.0  0.45334  0.67880  0.17675  1.0000
  Au  Au251     1.0  0.52333  0.67880  0.13635  1.0000
  Au  Au252     1.0  0.47667  0.74504  0.13635  1.0000
  Au  Au253     1.0  0.50000  0.61256  0.17675  1.0000
  Au  Au254     1.0  0.50000  0.61256  0.25756  1.0000
  Au  Au255     1.0  0.56999  0.61256  0.21716  1.0000
  Au  Au256     1.0  0.52333  0.67880  0.21716  1.0000
  Au  Au257     1.0  0.54666  0.54632  0.25756  1.0000
  Au  Au258     1.0  0.54666  0.54632  0.33838  1.0000
  Au  Au259     1.0  0.61664  0.54632  0.29797  1.0000
  Au  Au260     1.0  0.56999  0.61256  0.29797  1.0000
  Au  Au261     1.0  0.59331  0.48008  0.33838  1.0000
  Au  Au262     1.0  0.59331  0.48008  0.41919  1.0000
  Au  Au263     1.0  0.66330  0.48008  0.37878  1.0000
  Au  Au264     1.0  0.61664  0.54632  0.37878  1.0000
  Au  Au265     1.0  0.63997  0.41384  0.41919  1.0000
  Au  Au266     1.0  0.63997  0.41384  0.50000  1.0000
  Au  Au267     1.0  0.70996  0.41384  0.45959  1.0000
  Au  Au268     1.0  0.66330  0.48008  0.45959  1.0000
  Au  Au269     1.0  0.70996  0.41384  0.54041  1.0000
  Au  Au270     1.0  0.40669  0.74504  0.17675  1.0000
  Au  Au271     1.0  0.40669  0.74504  0.25756  1.0000
  Au  Au272     1.0  0.47667  0.74504  0.21716  1.0000
  Au  Au273     1.0  0.43001  0.81128  0.21716  1.0000
  Au  Au274     1.0  0.45334  0.67880  0.25756  1.0000
  Au  Au275     1.0  0.45334  0.67880  0.33838  1.0000
  Au  Au276     1.0  0.52333  0.67880  0.29797  1.0000
  Au  Au277     1.0  0.47667  0.74504  0.29797  1.0000
  Au  Au278     1.0  0.50000  0.61256  0.33838  1.0000
  Au  Au279     1.0  0.50000  0.61256  0.41919  1.0000
  Au  Au280     1.0  0.56999  0.61256  0.37878  1.0000
  Au  Au281     1.0  0.52333  0.67880  0.37878  1.0000
  Au  Au282     1.0  0.54666  0.54632  0.41919  1.0000
  Au  Au283     1.0  0.54666  0.54632  0.50000  1.0000
  Au  Au284     1.0  0.61664  0.54632  0.45959  1.0000
  Au  Au285     1.0  0.56999  0.61256  0.45959  1.0000
  Au  Au286     1.0  0.59331  0.48008  0.50000  1.0000
  Au  Au287     1.0  0.59331  0.48008  0.58081  1.0000
  Au  Au288     1.0  0.66330  0.48008  0.54041  1.0000
  Au  Au289     1.0  0.61664  0.54632  0.54041  1.0000
  Au  Au290     1.0  0.63997  0.41384  0.58081  1.0000
  Au  Au291     1.0  0.63997  0.41384  0.66162  1.0000
  Au  Au292     1.0  0.70996  0.41384  0.62122  1.0000
  Au  Au293     1.0  0.66330  0.48008  0.62122  1.0000
  Au  Au294     1.0  0.70996  0.41384  0.70203  1.0000
  Au  Au295     1.0  0.36003  0.81128  0.25756  1.0000
  Au  Au296     1.0  0.36003  0.81128  0.33838  1.0000
  Au  Au297     1.0  0.43001  0.81128  0.29797  1.0000
  Au  Au298     1.0  0.38336  0.87752  0.29797  1.0000
  Au  Au299     1.0  0.40669  0.74504  0.33838  1.0000
  Au  Au300     1.0  0.40669  0.74504  0.41919  1.0000
  Au  Au301     1.0  0.47667  0.74504  0.37878  1.0000
  Au  Au302     1.0  0.43001  0.81128  0.37878  1.0000
  Au  Au303     1.0  0.45334  0.67880  0.41919  1.0000
  Au  Au304     1.0  0.45334  0.67880  0.50000  1.0000
  Au  Au305     1.0  0.52333  0.67880  0.45959  1.0000
  Au  Au306     1.0  0.47667  0.74504  0.45959  1.0000
  Au  Au307     1.0  0.50000  0.61256  0.50000  1.0000
  Au  Au308     1.0  0.50000  0.61256  0.58081  1.0000
  Au  Au309     1.0  0.56999  0.61256  0.54041  1.0000
  Au  Au310     1.0  0.52333  0.67880  0.54041  1.0000
  Au  Au311     1.0  0.54666  0.54632  0.58081  1.0000
  Au  Au312     1.0  0.54666  0.54632  0.66162  1.0000
  Au  Au313     1.0  0.61664  0.54632  0.62122  1.0000
  Au  Au314     1.0  0.56999  0.61256  0.62122  1.0000
  Au  Au315     1.0  0.59331  0.48008  0.66162  1.0000
  Au  Au316     1.0  0.59331  0.48008  0.74244  1.0000
  Au  Au317     1.0  0.66330  0.48008  0.70203  1.0000
  Au  Au318     1.0  0.61664  0.54632  0.70203  1.0000
  Au  Au319     1.0  0.63997  0.41384  0.74244  1.0000
  Au  Au320     1.0  0.66330  0.48008  0.78284  1.0000
  Au  Au321     1.0  0.31337  0.87752  0.33838  1.0000
  Au  Au322     1.0  0.31337  0.87752  0.41919  1.0000
  Au  Au323     1.0  0.38336  0.87752  0.37878  1.0000
  Au  Au324     1.0  0.33670  0.94376  0.37878  1.0000
  Au  Au325     1.0  0.36003  0.81128  0.41919  1.0000
  Au  Au326     1.0  0.36003  0.81128  0.50000  1.0000
  Au  Au327     1.0  0.43001  0.81128  0.45959  1.0000
  Au  Au328     1.0  0.38336  0.87752  0.45959  1.0000
  Au  Au329     1.0  0.40669  0.74504  0.50000  1.0000
  Au  Au330     1.0  0.40669  0.74504  0.58081  1.0000
  Au  Au331     1.0  0.47667  0.74504  0.54041  1.0000
  Au  Au332     1.0  0.43001  0.81128  0.54041  1.0000
  Au  Au333     1.0  0.45334  0.67880  0.58081  1.0000
  Au  Au334     1.0  0.45334  0.67880  0.66162  1.0000
  Au  Au335     1.0  0.52333  0.67880  0.62122  1.0000
  Au  Au336     1.0  0.47667  0.74504  0.62122  1.0000
  Au  Au337     1.0  0.50000  0.61256  0.66162  1.0000
  Au  Au338     1.0  0.50000  0.61256  0.74244  1.0000
  Au  Au339     1.0  0.56999  0.61256  0.70203  1.0000
  Au  Au340     1.0  0.52333  0.67880  0.70203  1.0000
  Au  Au341     1.0  0.54666  0.54632  0.74244  1.0000
  Au  Au342     1.0  0.54666  0.54632  0.82325  1.0000
  Au  Au343     1.0  0.61664  0.54632  0.78284  1.0000
  Au  Au344     1.0  0.56999  0.61256  0.78284  1.0000
  Au  Au345     1.0  0.59331  0.48008  0.82325  1.0000
  Au  Au346     1.0  0.61664  0.54632  0.86365  1.0000
  Au  Au347     1.0  0.33670  0.94376  0.45959  1.0000
  Au  Au348     1.0  0.31337  0.87752  0.50000  1.0000
  Au  Au349     1.0  0.31337  0.87752  0.58081  1.0000
  Au  Au350     1.0  0.38336  0.87752  0.54041  1.0000
  Au  Au351     1.0  0.33670  0.94376  0.54041  1.0000
  Au  Au352     1.0  0.36003  0.81128  0.58081  1.0000
  Au  Au353     1.0  0.36003  0.81128  0.66162  1.0000
  Au  Au354     1.0  0.43001  0.81128  0.62122  1.0000
  Au  Au355     1.0  0.38336  0.87752  0.62122  1.0000
  Au  Au356     1.0  0.40669  0.74504  0.66162  1.0000
  Au  Au357     1.0  0.40669  0.74504  0.74244  1.0000
  Au  Au358     1.0  0.47667  0.74504  0.70203  1.0000
  Au  Au359     1.0  0.43001  0.81128  0.70203  1.0000
  Au  Au360     1.0  0.45334  0.67880  0.74244  1.0000
  Au  Au361     1.0  0.45334  0.67880  0.82325  1.0000
  Au  Au362     1.0  0.52333  0.67880  0.78284  1.0000
  Au  Au363     1.0  0.47667  0.74504  0.78284  1.0000
  Au  Au364     1.0  0.50000  0.61256  0.82325  1.0000
  Au  Au365     1.0  0.56999  0.61256  0.86365  1.0000
  Au  Au366     1.0  0.52333  0.67880  0.86365  1.0000
  Au  Au367     1.0  0.33670  0.94376  0.62122  1.0000
  Au  Au368     1.0  0.31337  0.87752  0.66162  1.0000
  Au  Au369     1.0  0.38336  0.87752  0.70203  1.0000
  Au  Au370     1.0  0.36003  0.81128  0.74244  1.0000
  Au  Au371     1.0  0.43001  0.81128  0.78284  1.0000
  Au  Au372     1.0  0.40669  0.74504  0.82325  1.0000
  Au  Au373     1.0  0.47667  0.74504  0.86365  1.0000
  Au  Au374     1.0  0.63997  0.61256  0.17675  1.0000
  Au  Au375     1.0  0.68663  0.54632  0.17675  1.0000
  Au  Au376     1.0  0.68663  0.54632  0.25756  1.0000
  Au  Au377     1.0  0.75661  0.54632  0.21716  1.0000
  Au  Au378     1.0  0.70996  0.61256  0.21716  1.0000
  Au  Au379     1.0  0.73328  0.48008  0.25756  1.0000
  Au  Au380     1.0  0.73328  0.48008  0.33838  1.0000
  Au  Au381     1.0  0.80327  0.48008  0.29797  1.0000
  Au  Au382     1.0  0.75661  0.54632  0.29797  1.0000
  Au  Au383     1.0  0.77994  0.41384  0.33838  1.0000
  Au  Au384     1.0  0.77994  0.41384  0.41919  1.0000
  Au  Au385     1.0  0.80327  0.48008  0.37878  1.0000
  Au  Au386     1.0  0.54666  0.74504  0.17675  1.0000
  Au  Au387     1.0  0.59331  0.67880  0.17675  1.0000
  Au  Au388     1.0  0.59331  0.67880  0.25756  1.0000
  Au  Au389     1.0  0.66330  0.67880  0.21716  1.0000
  Au  Au390     1.0  0.61664  0.74504  0.21716  1.0000
  Au  Au391     1.0  0.63997  0.61256  0.25756  1.0000
  Au  Au392     1.0  0.63997  0.61256  0.33838  1.0000
  Au  Au393     1.0  0.70996  0.61256  0.29797  1.0000
  Au  Au394     1.0  0.66330  0.67880  0.29797  1.0000
  Au  Au395     1.0  0.68663  0.54632  0.33838  1.0000
  Au  Au396     1.0  0.68663  0.54632  0.41919  1.0000
  Au  Au397     1.0  0.75661  0.54632  0.37878  1.0000
  Au  Au398     1.0  0.70996  0.61256  0.37878  1.0000
  Au  Au399     1.0  0.73328  0.48008  0.41919  1.0000
  Au  Au400     1.0  0.73328  0.48008  0.50000  1.0000
  Au  Au401     1.0  0.80327  0.48008  0.45959  1.0000
  Au  Au402     1.0  0.75661  0.54632  0.45959  1.0000
  Au  Au403     1.0  0.77994  0.41384  0.50000  1.0000
  Au  Au404     1.0  0.77994  0.41384  0.58081  1.0000
  Au  Au405     1.0  0.80327  0.48008  0.54041  1.0000
  Au  Au406     1.0  0.50000  0.81128  0.17675  1.0000
  Au  Au407     1.0  0.50000  0.81128  0.25756  1.0000
  Au  Au408     1.0  0.56999  0.81128  0.21716  1.0000
  Au  Au409     1.0  0.52333  0.87752  0.21716  1.0000
  Au  Au410     1.0  0.54666  0.74504  0.25756  1.0000
  Au  Au411     1.0  0.54666  0.74504  0.33838  1.0000
  Au  Au412     1.0  0.61664  0.74504  0.29797  1.0000
  Au  Au413     1.0  0.56999  0.81128  0.29797  1.0000
  Au  Au414     1.0  0.59331  0.67880  0.33838  1.0000
  Au  Au415     1.0  0.59331  0.67880  0.41919  1.0000
  Au  Au416     1.0  0.66330  0.67880  0.37878  1.0000
  Au  Au417     1.0  0.61664  0.74504  0.37878  1.0000
  Au  Au418     1.0  0.63997  0.61256  0.41919  1.0000
  Au  Au419     1.0  0.63997  0.61256  0.50000  1.0000
  Au  Au420     1.0  0.70996  0.61256  0.45959  1.0000
  Au  Au421     1.0  0.66330  0.67880  0.45959  1.0000
  Au  Au422     1.0  0.68663  0.54632  0.50000  1.0000
  Au  Au423     1.0  0.68663  0.54632  0.58081  1.0000
  Au  Au424     1.0  0.75661  0.54632  0.54041  1.0000
  Au  Au425     1.0  0.70996  0.61256  0.54041  1.0000
  Au  Au426     1.0  0.73328  0.48008  0.58081  1.0000
  Au  Au427     1.0  0.73328  0.48008  0.66162  1.0000
  Au  Au428     1.0  0.80327  0.48008  0.62122  1.0000
  Au  Au429     1.0  0.75661  0.54632  0.62122  1.0000
  Au  Au430     1.0  0.77994  0.41384  0.66162  1.0000
  Au  Au431     1.0  0.80327  0.48008  0.70203  1.0000
  Au  Au432     1.0  0.45334  0.87752  0.25756  1.0000
  Au  Au433     1.0  0.45334  0.87752  0.33838  1.0000
  Au  Au434     1.0  0.52333  0.87752  0.29797  1.0000
  Au  Au435     1.0  0.47667  0.94376  0.29797  1.0000
  Au  Au436     1.0  0.50000  0.81128  0.33838  1.0000
  Au  Au437     1.0  0.50000  0.81128  0.41919  1.0000
  Au  Au438     1.0  0.56999  0.81128  0.37878  1.0000
  Au  Au439     1.0  0.52333  0.87752  0.37878  1.0000
  Au  Au440     1.0  0.54666  0.74504  0.41919  1.0000
  Au  Au441     1.0  0.54666  0.74504  0.50000  1.0000
  Au  Au442     1.0  0.61664  0.74504  0.45959  1.0000
  Au  Au443     1.0  0.56999  0.81128  0.45959  1.0000
  Au  Au444     1.0  0.59331  0.67880  0.50000  1.0000
  Au  Au445     1.0  0.59331  0.67880  0.58081  1.0000
  Au  Au446     1.0  0.66330  0.67880  0.54041  1.0000
  Au  Au447     1.0  0.61664  0.74504  0.54041  1.0000
  Au  Au448     1.0  0.63997  0.61256  0.58081  1.0000
  Au  Au449     1.0  0.63997  0.61256  0.66162  1.0000
  Au  Au450     1.0  0.70996  0.61256  0.62122  1.0000
  Au  Au451     1.0  0.66330  0.67880  0.62122  1.0000
  Au  Au452     1.0  0.68663  0.54632  0.66162  1.0000
  Au  Au453     1.0  0.68663  0.54632  0.74244  1.0000
  Au  Au454     1.0  0.75661  0.54632  0.70203  1.0000
  Au  Au455     1.0  0.70996  0.61256  0.70203  1.0000
  Au  Au456     1.0  0.73328  0.48008  0.74244  1.0000
  Au  Au457     1.0  0.75661  0.54632  0.78284  1.0000
  Au  Au458     1.0  0.40669  0.94376  0.33838  1.0000
  Au  Au459     1.0  0.40669  0.94376  0.41919  1.0000
  Au  Au460     1.0  0.47667  0.94376  0.37878  1.0000
  Au  Au461     1.0  0.45334  0.87752  0.41919  1.0000
  Au  Au462     1.0  0.45334  0.87752  0.50000  1.0000
  Au  Au463     1.0  0.52333  0.87752  0.45959  1.0000
  Au  Au464     1.0  0.47667  0.94376  0.45959  1.0000
  Au  Au465     1.0  0.50000  0.81128  0.50000  1.0000
  Au  Au466     1.0  0.50000  0.81128  0.58081  1.0000
  Au  Au467     1.0  0.56999  0.81128  0.54041  1.0000
  Au  Au468     1.0  0.52333  0.87752  0.54041  1.0000
  Au  Au469     1.0  0.54666  0.74504  0.58081  1.0000
  Au  Au470     1.0  0.54666  0.74504  0.66162  1.0000
  Au  Au471     1.0  0.61664  0.74504  0.62122  1.0000
  Au  Au472     1.0  0.56999  0.81128  0.62122  1.0000
  Au  Au473     1.0  0.59331  0.67880  0.66162  1.0000
  Au  Au474     1.0  0.59331  0.67880  0.74244  1.0000
  Au  Au475     1.0  0.66330  0.67880  0.70203  1.0000
  Au  Au476     1.0  0.61664  0.74504  0.70203  1.0000
  Au  Au477     1.0  0.63997  0.61256  0.74244  1.0000
  Au  Au478     1.0  0.63997  0.61256  0.82325  1.0000
  Au  Au479     1.0  0.70996  0.61256  0.78284  1.0000
  Au  Au480     1.0  0.66330  0.67880  0.78284  1.0000
  Au  Au481     1.0  0.68663  0.54632  0.82325  1.0000
  Au  Au482     1.0  0.40669  0.94376  0.50000  1.0000
  Au  Au483     1.0  0.40669  0.94376  0.58081  1.0000
  Au  Au484     1.0  0.47667  0.94376  0.54041  1.0000
  Au  Au485     1.0  0.45334  0.87752  0.58081  1.0000
  Au  Au486     1.0  0.45334  0.87752  0.66162  1.0000
  Au  Au487     1.0  0.52333  0.87752  0.62122  1.0000
  Au  Au488     1.0  0.47667  0.94376  0.62122  1.0000
  Au  Au489     1.0  0.50000  0.81128  0.66162  1.0000
  Au  Au490     1.0  0.50000  0.81128  0.74244  1.0000
  Au  Au491     1.0  0.56999  0.81128  0.70203  1.0000
  Au  Au492     1.0  0.52333  0.87752  0.70203  1.0000
  Au  Au493     1.0  0.54666  0.74504  0.74244  1.0000
  Au  Au494     1.0  0.54666  0.74504  0.82325  1.0000
  Au  Au495     1.0  0.61664  0.74504  0.78284  1.0000
  Au  Au496     1.0  0.56999  0.81128  0.78284  1.0000
  Au  Au497     1.0  0.59331  0.67880  0.82325  1.0000
  Au  Au498     1.0  0.40669  0.94376  0.66162  1.0000
  Au  Au499     1.0  0.47667  0.94376  0.70203  1.0000
  Au  Au500     1.0  0.45334  0.87752  0.74244  1.0000
  Au  Au501     1.0  0.52333  0.87752  0.78284  1.0000
  Au  Au502     1.0  0.50000  0.81128  0.82325  1.0000
  Au  Au503     1.0  0.77994  0.61256  0.25756  1.0000
  Au  Au504     1.0  0.82660  0.54632  0.33838  1.0000
  Au  Au505     1.0  0.68663  0.74504  0.25756  1.0000
  Au  Au506     1.0  0.73328  0.67880  0.25756  1.0000
  Au  Au507     1.0  0.73328  0.67880  0.33838  1.0000
  Au  Au508     1.0  0.80327  0.67880  0.29797  1.0000
  Au  Au509     1.0  0.75661  0.74504  0.29797  1.0000
  Au  Au510     1.0  0.77994  0.61256  0.33838  1.0000
  Au  Au511     1.0  0.77994  0.61256  0.41919  1.0000
  Au  Au512     1.0  0.84993  0.61256  0.37878  1.0000
  Au  Au513     1.0  0.80327  0.67880  0.37878  1.0000
  Au  Au514     1.0  0.82660  0.54632  0.41919  1.0000
  Au  Au515     1.0  0.82660  0.54632  0.50000  1.0000
  Au  Au516     1.0  0.84993  0.61256  0.45959  1.0000
  Au  Au517     1.0  0.59331  0.87752  0.25756  1.0000
  Au  Au518     1.0  0.63997  0.81128  0.25756  1.0000
  Au  Au519     1.0  0.63997  0.81128  0.33838  1.0000
  Au  Au520     1.0  0.70996  0.81128  0.29797  1.0000
  Au  Au521     1.0  0.66330  0.87752  0.29797  1.0000
  Au  Au522     1.0  0.68663  0.74504  0.33838  1.0000
  Au  Au523     1.0  0.68663  0.74504  0.41919  1.0000
  Au  Au524     1.0  0.75661  0.74504  0.37878  1.0000
  Au  Au525     1.0  0.70996  0.81128  0.37878  1.0000
  Au  Au526     1.0  0.73328  0.67880  0.41919  1.0000
  Au  Au527     1.0  0.73328  0.67880  0.50000  1.0000
  Au  Au528     1.0  0.80327  0.67880  0.45959  1.0000
  Au  Au529     1.0  0.75661  0.74504  0.45959  1.0000
  Au  Au530     1.0  0.77994  0.61256  0.50000  1.0000
  Au  Au531     1.0  0.77994  0.61256  0.58081  1.0000
  Au  Au532     1.0  0.84993  0.61256  0.54041  1.0000
  Au  Au533     1.0  0.80327  0.67880  0.54041  1.0000
  Au  Au534     1.0  0.82660  0.54632  0.58081  1.0000
  Au  Au535     1.0  0.82660  0.54632  0.66162  1.0000
  Au  Au536     1.0  0.84993  0.61256  0.62122  1.0000
  Au  Au537     1.0  0.54666  0.94376  0.33838  1.0000
  Au  Au538     1.0  0.59331  0.87752  0.33838  1.0000
  Au  Au539     1.0  0.59331  0.87752  0.41919  1.0000
  Au  Au540     1.0  0.66330  0.87752  0.37878  1.0000
  Au  Au541     1.0  0.61664  0.94376  0.37878  1.0000
  Au  Au542     1.0  0.63997  0.81128  0.41919  1.0000
  Au  Au543     1.0  0.63997  0.81128  0.50000  1.0000
  Au  Au544     1.0  0.70996  0.81128  0.45959  1.0000
  Au  Au545     1.0  0.66330  0.87752  0.45959  1.0000
  Au  Au546     1.0  0.68663  0.74504  0.50000  1.0000
  Au  Au547     1.0  0.68663  0.74504  0.58081  1.0000
  Au  Au548     1.0  0.75661  0.74504  0.54041  1.0000
  Au  Au549     1.0  0.70996  0.81128  0.54041  1.0000
  Au  Au550     1.0  0.73328  0.67880  0.58081  1.0000
  Au  Au551     1.0  0.73328  0.67880  0.66162  1.0000
  Au  Au552     1.0  0.80327  0.67880  0.62122  1.0000
  Au  Au553     1.0  0.75661  0.74504  0.62122  1.0000
  Au  Au554     1.0  0.77994  0.61256  0.66162  1.0000
  Au  Au555     1.0  0.77994  0.61256  0.74244  1.0000
  Au  Au556     1.0  0.80327  0.67880  0.70203  1.0000
  Au  Au557     1.0  0.54666  0.94376  0.41919  1.0000
  Au  Au558     1.0  0.54666  0.94376  0.50000  1.0000
  Au  Au559     1.0  0.61664  0.94376  0.45959  1.0000
  Au  Au560     1.0  0.59331  0.87752  0.50000  1.0000
  Au  Au561     1.0  0.59331  0.87752  0.58081  1.0000
  Au  Au562     1.0  0.66330  0.87752  0.54041  1.0000
  Au  Au563     1.0  0.61664  0.94376  0.54041  1.0000
  Au  Au564     1.0  0.63997  0.81128  0.58081  1.0000
  Au  Au565     1.0  0.63997  0.81128  0.66162  1.0000
  Au  Au566     1.0  0.70996  0.81128  0.62122  1.0000
  Au  Au567     1.0  0.66330  0.87752  0.62122  1.0000
  Au  Au568     1.0  0.68663  0.74504  0.66162  1.0000
  Au  Au569     1.0  0.68663  0.74504  0.74244  1.0000
  Au  Au570     1.0  0.75661  0.74504  0.70203  1.0000
  Au  Au571     1.0  0.70996  0.81128  0.70203  1.0000
  Au  Au572     1.0  0.73328  0.67880  0.74244  1.0000
  Au  Au573     1.0  0.54666  0.94376  0.58081  1.0000
  Au  Au574     1.0  0.54666  0.94376  0.66162  1.0000
  Au  Au575     1.0  0.61664  0.94376  0.62122  1.0000
  Au  Au576     1.0  0.59331  0.87752  0.66162  1.0000
  Au  Au577     1.0  0.59331  0.87752  0.74244  1.0000
  Au  Au578     1.0  0.66330  0.87752  0.70203  1.0000
  Au  Au579     1.0  0.63997  0.81128  0.74244  1.0000
  Au  Au580     1.0  0.82660  0.74504  0.33838  1.0000
  Au  Au581     1.0  0.87326  0.67880  0.41919  1.0000
  Au  Au582     1.0  0.73328  0.87752  0.33838  1.0000
  Au  Au583     1.0  0.77994  0.81128  0.33838  1.0000
  Au  Au584     1.0  0.77994  0.81128  0.41919  1.0000
  Au  Au585     1.0  0.82660  0.74504  0.41919  1.0000
  Au  Au586     1.0  0.82660  0.74504  0.50000  1.0000
  Au  Au587     1.0  0.87326  0.67880  0.50000  1.0000
  Au  Au588     1.0  0.87326  0.67880  0.58081  1.0000
  Au  Au589     1.0  0.68663  0.94376  0.41919  1.0000
  Au  Au590     1.0  0.73328  0.87752  0.41919  1.0000
  Au  Au591     1.0  0.73328  0.87752  0.50000  1.0000
  Au  Au592     1.0  0.77994  0.81128  0.50000  1.0000
  Au  Au593     1.0  0.77994  0.81128  0.58081  1.0000
  Au  Au594     1.0  0.82660  0.74504  0.58081  1.0000
  Au  Au595     1.0  0.82660  0.74504  0.66162  1.0000
  Au  Au596     1.0  0.68663  0.94376  0.50000  1.0000
  Au  Au597     1.0  0.68663  0.94376  0.58081  1.0000
  Au  Au598     1.0  0.73328  0.87752  0.58081  1.0000
  Au  Au599     1.0  0.73328  0.87752  0.66162  1.0000
  Au  Au600     1.0  0.77994  0.81128  0.66162  1.0000
