data_image0
_chemical_formula_structural       C8000Au600
_chemical_formula_sum              "C8000 Au600"
_cell_length_a       35.7
_cell_length_b       58.2686
_cell_length_c       35.7
_cell_angle_alpha    90
_cell_angle_beta     90
_cell_angle_gamma    90

_space_group_name_H-M_alt    "P 1"
_space_group_IT_number       1

loop_
  _space_group_symop_operation_xyz
  'x, y, z'

loop_
  _atom_site_type_symbol
  _atom_site_label
  _atom_site_symmetry_multiplicity
  _atom_site_fract_x
  _atom_site_fract_y
  _atom_site_fract_z
  _atom_site_occupancy
  C   C1        1.0  0.97620  0.63736  0.98314  1.0000
  C   C2        1.0  0.03076  0.04629  0.02773  1.0000
  C   C3        1.0  0.01818  0.07623  0.06025  1.0000
  C   C4        1.0  0.01528  0.07023  0.05743  1.0000
  C   C5        1.0  0.04258  0.64626  0.02903  1.0000
  C   C6        1.0  0.05053  0.05362  0.03506  1.0000
  C   C7        1.0  0.04618  0.07052  0.97875  1.0000
  C   C8        1.0  0.05100  0.07016  0.03898  1.0000
  C   C9        1.0  0.99720  0.62223  0.09087  1.0000
  C   C10       1.0  0.04687  0.06258  0.13859  1.0000
  C   C11       1.0  0.99487  0.04051  0.15366  1.0000
  C   C12       1.0  0.02120  0.08123  0.20827  1.0000
  C   C13       1.0  0.05396  0.03791  0.16305  1.0000
  C   C14       1.0  0.06947  0.04080  0.15910  1.0000
  C   C15       1.0  0.06654  0.07156  0.08944  1.0000
  C   C16       1.0  0.09986  0.08265  0.09609  1.0000
  C   C17       1.0  0.01307  0.64510  0.17134  1.0000
  C   C18       1.0  0.03612  0.04502  0.21654  1.0000
  C   C19       1.0  0.01272  0.03592  0.22245  1.0000
  C   C20       1.0  0.01584  0.08350  0.26065  1.0000
  C   C21       1.0  0.02850  0.63303  0.24747  1.0000
  C   C22       1.0  0.08956  0.64310  0.23013  1.0000
  C   C23       1.0  0.04359  0.05985  0.18039  1.0000
  C   C24       1.0  0.08819  0.09084  0.21283  1.0000
  C   C25       1.0  0.99257  0.04179  0.29074  1.0000
  C   C26       1.0  0.99474  0.04868  0.30550  1.0000
  C   C27       1.0  0.00702  0.05822  0.34592  1.0000
  C   C28       1.0  0.03620  0.07856  0.36133  1.0000
  C   C29       1.0  0.02829  0.05700  0.37387  1.0000
  C   C30       1.0  0.04257  0.03567  0.38760  1.0000
  C   C31       1.0  0.03731  0.06509  0.31756  1.0000
  C   C32       1.0  0.07778  0.07850  0.31479  1.0000
  C   C33       1.0  0.99814  0.03937  0.43742  1.0000
  C   C34       1.0  0.04797  0.04694  0.44477  1.0000
  C   C35       1.0  0.00253  0.04532  0.44770  1.0000
  C   C36       1.0  0.04645  0.07233  0.49519  1.0000
  C   C37       1.0  0.04339  0.03461  0.42431  1.0000
  C   C38       1.0  0.11965  0.05557  0.49675  1.0000
  C   C39       1.0  0.04024  0.04556  0.42613  1.0000
  C   C40       1.0  0.05965  0.10204  0.42131  1.0000
  C   C41       1.0  0.03504  0.63731  0.46195  1.0000
  C   C42       1.0  0.04006  0.04868  0.52494  1.0000
  C   C43       1.0  0.02262  0.05324  0.52208  1.0000
  C   C44       1.0  0.99980  0.05798  0.53599  1.0000
  C   C45       1.0  0.02228  0.63407  0.54010  1.0000
  C   C46       1.0  0.04881  0.04760  0.59077  1.0000
  C   C47       1.0  0.04457  0.06991  0.47935  1.0000
  C   C48       1.0  0.08011  0.08555  0.50951  1.0000
  C   C49       1.0  0.96516  0.64320  0.59746  1.0000
  C   C50       1.0  0.05308  0.04241  0.65705  1.0000
  C   C51       1.0  0.94520  0.05872  0.63583  1.0000
  C   C52       1.0  0.01304  0.07087  0.66999  1.0000
  C   C53       1.0  0.08104  0.64245  0.67131  1.0000
  C   C54       1.0  0.06882  0.04845  0.62014  1.0000
  C   C55       1.0  0.04766  0.07023  0.57153  1.0000
  C   C56       1.0  0.05774  0.06644  0.66588  1.0000
  C   C57       1.0  0.97478  0.63487  0.63783  1.0000
  C   C58       1.0  0.98698  0.04956  0.69331  1.0000
  C   C59       1.0  0.93671  0.05831  0.74759  1.0000
  C   C60       1.0  0.02607  0.08218  0.75743  1.0000
  C   C61       1.0  0.10497  0.63684  0.75476  1.0000
  C   C62       1.0  0.04332  0.03862  0.73785  1.0000
  C   C63       1.0  0.04993  0.05684  0.67403  1.0000
  C   C64       1.0  0.02773  0.08458  0.73784  1.0000
  C   C65       1.0  0.01324  0.64304  0.81032  1.0000
  C   C66       1.0  0.04003  0.05360  0.85131  1.0000
  C   C67       1.0  0.99243  0.06511  0.81369  1.0000
  C   C68       1.0  0.06572  0.06814  0.87832  1.0000
  C   C69       1.0  0.05994  0.63425  0.84579  1.0000
  C   C70       1.0  0.08646  0.04644  0.86548  1.0000
  C   C71       1.0  0.04024  0.05383  0.79351  1.0000
  C   C72       1.0  0.08000  0.08447  0.84563  1.0000
  C   C73       1.0  0.99848  0.63868  0.91546  1.0000
  C   C74       1.0  0.03002  0.06121  0.92667  1.0000
  C   C75       1.0  0.00911  0.06866  0.96339  1.0000
  C   C76       1.0  0.00207  0.07755  0.97675  1.0000
  C   C77       1.0  0.08452  0.64474  0.95775  1.0000
  C   C78       1.0  0.06917  0.63405  0.99955  1.0000
  C   C79       1.0  0.06244  0.07997  0.86898  1.0000
  C   C80       1.0  0.07903  0.08128  0.88959  1.0000
  C   C81       1.0  0.00795  0.08637  0.00849  1.0000
  C   C82       1.0  0.98759  0.09811  0.00788  1.0000
  C   C83       1.0  0.96549  0.12567  0.07596  1.0000
  C   C84       1.0  0.02261  0.14851  0.10444  1.0000
  C   C85       1.0  0.05987  0.08946  0.00712  1.0000
  C   C86       1.0  0.08058  0.10538  0.06334  1.0000
  C   C87       1.0  0.06363  0.13217  0.96464  1.0000
  C   C88       1.0  0.07832  0.13611  0.04141  1.0000
  C   C89       1.0  0.99772  0.10653  0.08403  1.0000
  C   C90       1.0  0.01467  0.10264  0.11931  1.0000
  C   C91       1.0  0.99303  0.14063  0.12720  1.0000
  C   C92       1.0  0.02499  0.12509  0.14238  1.0000
  C   C93       1.0  0.03549  0.07469  0.15194  1.0000
  C   C94       1.0  0.05753  0.10276  0.18286  1.0000
  C   C95       1.0  0.08144  0.11811  0.05639  1.0000
  C   C96       1.0  0.06473  0.14033  0.14756  1.0000
  C   C97       1.0  0.99743  0.08296  0.21818  1.0000
  C   C98       1.0  0.04666  0.10745  0.22977  1.0000
  C   C99       1.0  0.00635  0.15924  0.23594  1.0000
  C   C100      1.0  0.01500  0.13950  0.28930  1.0000
  C   C101      1.0  0.04260  0.10163  0.26828  1.0000
  C   C102      1.0  0.11632  0.10827  0.26750  1.0000
  C   C103      1.0  0.04206  0.10136  0.17400  1.0000
  C   C104      1.0  0.07743  0.14299  0.27956  1.0000
  C   C105      1.0  0.02574  0.10519  0.33068  1.0000
  C   C106      1.0  0.01040  0.10296  0.30826  1.0000
  C   C107      1.0  0.99584  0.15393  0.34365  1.0000
  C   C108      1.0  0.01055  0.14161  0.39225  1.0000
  C   C109      1.0  0.05962  0.10636  0.32366  1.0000
  C   C110      1.0  0.05593  0.10750  0.37651  1.0000
  C   C111      1.0  0.07872  0.10927  0.31333  1.0000
  C   C112      1.0  0.06967  0.14928  0.31058  1.0000
  C   C113      1.0  0.96979  0.11081  0.40589  1.0000
  C   C114      1.0  0.98306  0.11978  0.40310  1.0000
  C   C115      1.0  0.99740  0.12573  0.42076  1.0000
  C   C116      1.0  0.04837  0.13436  0.50948  1.0000
  C   C117      1.0  0.05999  0.10203  0.45536  1.0000
  C   C118      1.0  0.11688  0.09718  0.45790  1.0000
  C   C119      1.0  0.03547  0.14107  0.42221  1.0000
  C   C120      1.0  0.07653  0.14481  0.38936  1.0000
  C   C121      1.0  0.03159  0.09245  0.50234  1.0000
  C   C122      1.0  0.01828  0.11931  0.52016  1.0000
  C   C123      1.0  0.00237  0.12721  0.53890  1.0000
  C   C124      1.0  0.01169  0.14656  0.58311  1.0000
  C   C125      1.0  0.06568  0.11457  0.52333  1.0000
  C   C126      1.0  0.03529  0.10544  0.60227  1.0000
  C   C127      1.0  0.04895  0.10211  0.53419  1.0000
  C   C128      1.0  0.08571  0.12172  0.50704  1.0000
  C   C129      1.0  0.00206  0.08817  0.59702  1.0000
  C   C130      1.0  0.03608  0.11087  0.65490  1.0000
  C   C131      1.0  0.99582  0.14579  0.63735  1.0000
  C   C132      1.0  0.99982  0.11380  0.65626  1.0000
  C   C133      1.0  0.05191  0.10811  0.57600  1.0000
  C   C134      1.0  0.07402  0.09796  0.69012  1.0000
  C   C135      1.0  0.03884  0.13005  0.63869  1.0000
  C   C136      1.0  0.07725  0.13917  0.64599  1.0000
  C   C137      1.0  0.00616  0.09279  0.66532  1.0000
  C   C138      1.0  0.01721  0.08879  0.72913  1.0000
  C   C139      1.0  0.01210  0.12683  0.78935  1.0000
  C   C140      1.0  0.00021  0.14670  0.77555  1.0000
  C   C141      1.0  0.02437  0.10192  0.76747  1.0000
  C   C142      1.0  0.09878  0.10845  0.78836  1.0000
  C   C143      1.0  0.03553  0.14555  0.73826  1.0000
  C   C144      1.0  0.07816  0.14436  0.70202  1.0000
  C   C145      1.0  0.00040  0.09064  0.80483  1.0000
  C   C146      1.0  0.99476  0.13411  0.82908  1.0000
  C   C147      1.0  0.02329  0.13269  0.84389  1.0000
  C   C148      1.0  0.06633  0.15621  0.84326  1.0000
  C   C149      1.0  0.04965  0.09255  0.83292  1.0000
  C   C150      1.0  0.12149  0.09489  0.90782  1.0000
  C   C151      1.0  0.01328  0.14426  0.78884  1.0000
  C   C152      1.0  0.02700  0.14518  0.83554  1.0000
  C   C153      1.0  0.98071  0.10992  0.86414  1.0000
  C   C154      1.0  0.04950  0.11878  0.96381  1.0000
  C   C155      1.0  0.99182  0.13798  0.93788  1.0000
  C   C156      1.0  0.04308  0.14502  0.99269  1.0000
  C   C157      1.0  0.02297  0.10227  0.95843  1.0000
  C   C158      1.0  0.10784  0.10672  0.97164  1.0000
  C   C159      1.0  0.06437  0.13342  0.84640  1.0000
  C   C160      1.0  0.06946  0.15307  0.91786  1.0000
  C   C161      1.0  0.96064  0.15248  0.99980  1.0000
  C   C162      1.0  0.00459  0.17334  0.00162  1.0000
  C   C163      1.0  0.99599  0.18857  0.08820  1.0000
  C   C164      1.0  0.03265  0.21951  0.07974  1.0000
  C   C165      1.0  0.02567  0.14163  0.06698  1.0000
  C   C166      1.0  0.04066  0.15114  0.09437  1.0000
  C   C167      1.0  0.03246  0.17227  0.03531  1.0000
  C   C168      1.0  0.05619  0.21070  0.02415  1.0000
  C   C169      1.0  0.00273  0.15729  0.12148  1.0000
  C   C170      1.0  0.05663  0.15976  0.15758  1.0000
  C   C171      1.0  0.99520  0.18508  0.16449  1.0000
  C   C172      1.0  0.01316  0.19049  0.20727  1.0000
  C   C173      1.0  0.03742  0.12884  0.07924  1.0000
  C   C174      1.0  0.08166  0.17000  0.21183  1.0000
  C   C175      1.0  0.02472  0.17135  0.10053  1.0000
  C   C176      1.0  0.10342  0.22116  0.12557  1.0000
  C   C177      1.0  0.98605  0.15849  0.23252  1.0000
  C   C178      1.0  0.02322  0.16620  0.23454  1.0000
  C   C179      1.0  0.00429  0.18891  0.29458  1.0000
  C   C180      1.0  0.03941  0.20435  0.26766  1.0000
  C   C181      1.0  0.04439  0.16357  0.26574  1.0000
  C   C182      1.0  0.06170  0.16538  0.26944  1.0000
  C   C183      1.0  0.03018  0.20196  0.18101  1.0000
  C   C184      1.0  0.07856  0.21586  0.20422  1.0000
  C   C185      1.0  0.98202  0.15513  0.31110  1.0000
  C   C186      1.0  0.02924  0.17298  0.35213  1.0000
  C   C187      1.0  0.98809  0.17874  0.36429  1.0000
  C   C188      1.0  0.02787  0.21539  0.39855  1.0000
  C   C189      1.0  0.02688  0.12960  0.36225  1.0000
  C   C190      1.0  0.07442  0.17603  0.35603  1.0000
  C   C191      1.0  0.06750  0.18467  0.31217  1.0000
  C   C192      1.0  0.09490  0.20443  0.32347  1.0000
  C   C193      1.0  0.98559  0.19237  0.37112  1.0000
  C   C194      1.0  0.04052  0.15261  0.40773  1.0000
  C   C195      1.0  0.03053  0.17805  0.47310  1.0000
  C   C196      1.0  0.01717  0.21450  0.44501  1.0000
  C   C197      1.0  0.02597  0.17611  0.45737  1.0000
  C   C198      1.0  0.05298  0.16586  0.41544  1.0000
  C   C199      1.0  0.04313  0.16996  0.37912  1.0000
  C   C200      1.0  0.10712  0.19546  0.41136  1.0000
  C   C201      1.0  0.97587  0.16543  0.51151  1.0000
  C   C202      1.0  0.00655  0.15003  0.52001  1.0000
  C   C203      1.0  0.00226  0.16100  0.57407  1.0000
  C   C204      1.0  0.00484  0.20368  0.55760  1.0000
  C   C205      1.0  0.03292  0.16861  0.55136  1.0000
  C   C206      1.0  0.04173  0.17621  0.59204  1.0000
  C   C207      1.0  0.04563  0.20117  0.47940  1.0000
  C   C208      1.0  0.09470  0.20520  0.52787  1.0000
  C   C209      1.0  0.02877  0.16557  0.59253  1.0000
  C   C210      1.0  0.03519  0.16280  0.63523  1.0000
  C   C211      1.0  0.02759  0.20302  0.63418  1.0000
  C   C212      1.0  0.01921  0.21080  0.68694  1.0000
  C   C213      1.0  0.03325  0.15922  0.65765  1.0000
  C   C214      1.0  0.10710  0.17479  0.67257  1.0000
  C   C215      1.0  0.02603  0.16889  0.61910  1.0000
  C   C216      1.0  0.07576  0.19640  0.64521  1.0000
  C   C217      1.0  0.00966  0.15494  0.71474  1.0000
  C   C218      1.0  0.01550  0.18116  0.73256  1.0000
  C   C219      1.0  0.99016  0.18191  0.73360  1.0000
  C   C220      1.0  0.04366  0.20064  0.75250  1.0000
  C   C221      1.0  0.06488  0.16280  0.74969  1.0000
  C   C222      1.0  0.07902  0.16691  0.76174  1.0000
  C   C223      1.0  0.06779  0.17222  0.66633  1.0000
  C   C224      1.0  0.04562  0.21361  0.70117  1.0000
  C   C225      1.0  0.99313  0.14670  0.77710  1.0000
  C   C226      1.0  0.02030  0.16981  0.86583  1.0000
  C   C227      1.0  0.99167  0.19018  0.89230  1.0000
  C   C228      1.0  0.05448  0.21041  0.89363  1.0000
  C   C229      1.0  0.04867  0.16738  0.85531  1.0000
  C   C230      1.0  0.05692  0.19459  0.87450  1.0000
  C   C231      1.0  0.06190  0.18056  0.77373  1.0000
  C   C232      1.0  0.03686  0.15917  0.83751  1.0000
  C   C233      1.0  0.96213  0.14947  0.89938  1.0000
  C   C234      1.0  0.99247  0.16490  0.93239  1.0000
  C   C235      1.0  0.99416  0.19452  0.89234  1.0000
  C   C236      1.0  0.03690  0.21356  0.94548  1.0000
  C   C237      1.0  0.06575  0.15119  0.94396  1.0000
  C   C238      1.0  0.08624  0.15215  0.99200  1.0000
  C   C239      1.0  0.03377  0.19727  0.89770  1.0000
  C   C240      1.0  0.08028  0.19150  0.92349  1.0000
  C   C241      1.0  0.97435  0.20859  0.96909  1.0000
  C   C242      1.0  0.02281  0.21984  0.07453  1.0000
  C   C243      1.0  0.98029  0.21968  0.07301  1.0000
  C   C244      1.0  0.01620  0.26993  0.07534  1.0000
  C   C245      1.0  0.03215  0.20962  0.02582  1.0000
  C   C246      1.0  0.10442  0.24139  0.04572  1.0000
  C   C247      1.0  0.06995  0.25572  0.96391  1.0000
  C   C248      1.0  0.05625  0.26857  0.02986  1.0000
  C   C249      1.0  0.04284  0.21726  0.11913  1.0000
  C   C250      1.0  0.01331  0.23110  0.12384  1.0000
  C   C251      1.0  0.99737  0.25057  0.15045  1.0000
  C   C252      1.0  0.98860  0.27235  0.14917  1.0000
  C   C253      1.0  0.06630  0.22571  0.16355  1.0000
  C   C254      1.0  0.06092  0.23639  0.18924  1.0000
  C   C255      1.0  0.03735  0.22850  0.13585  1.0000
  C   C256      1.0  0.06880  0.25682  0.10243  1.0000
  C   C257      1.0  0.97237  0.18205  0.17576  1.0000
  C   C258      1.0  0.00059  0.22123  0.26571  1.0000
  C   C259      1.0  0.99657  0.24297  0.25081  1.0000
  C   C260      1.0  0.00757  0.28074  0.30107  1.0000
  C   C261      1.0  0.03323  0.23090  0.26600  1.0000
  C   C262      1.0  0.13183  0.24989  0.24483  1.0000
  C   C263      1.0  0.04121  0.25938  0.21242  1.0000
  C   C264      1.0  0.10202  0.26223  0.23065  1.0000
  C   C265      1.0  0.03178  0.22604  0.29957  1.0000
  C   C266      1.0  0.07669  0.23250  0.32886  1.0000
  C   C267      1.0  0.98184  0.25246  0.31318  1.0000
  C   C268      1.0  0.05855  0.23500  0.39412  1.0000
  C   C269      1.0  0.03193  0.22289  0.38275  1.0000
  C   C270      1.0  0.07527  0.24004  0.36125  1.0000
  C   C271      1.0  0.04337  0.26481  0.28419  1.0000
  C   C272      1.0  0.09394  0.26656  0.31634  1.0000
  C   C273      1.0  0.02066  0.20554  0.40712  1.0000
  C   C274      1.0  0.99645  0.23000  0.39725  1.0000
  C   C275      1.0  0.00385  0.26051  0.47160  1.0000
  C   C276      1.0  0.03425  0.26705  0.46508  1.0000
  C   C277      1.0  0.04167  0.20542  0.49411  1.0000
  C   C278      1.0  0.07279  0.23134  0.47764  1.0000
  C   C279      1.0  0.03195  0.27006  0.38990  1.0000
  C   C280      1.0  0.05348  0.28728  0.45050  1.0000
  C   C281      1.0  0.01407  0.21164  0.53090  1.0000
  C   C282      1.0  0.02490  0.23672  0.54942  1.0000
  C   C283      1.0  0.00335  0.24241  0.50312  1.0000
  C   C284      1.0  0.04897  0.23385  0.55744  1.0000
  C   C285      1.0  0.02898  0.20968  0.53893  1.0000
  C   C286      1.0  0.08253  0.22734  0.51176  1.0000
  C   C287      1.0  0.04637  0.23077  0.48731  1.0000
  C   C288      1.0  0.04355  0.25987  0.51495  1.0000
  C   C289      1.0  0.01308  0.22149  0.61673  1.0000
  C   C290      1.0  0.98970  0.24928  0.61031  1.0000
  C   C291      1.0  0.00568  0.25540  0.66294  1.0000
  C   C292      1.0  0.01898  0.24369  0.68979  1.0000
  C   C293      1.0  0.07471  0.23227  0.67257  1.0000
  C   C294      1.0  0.10793  0.24456  0.66483  1.0000
  C   C295      1.0  0.06439  0.23334  0.59731  1.0000
  C   C296      1.0  0.07588  0.27765  0.61694  1.0000
  C   C297      1.0  0.99371  0.21003  0.70876  1.0000
  C   C298      1.0  0.98642  0.20271  0.75905  1.0000
  C   C299      1.0  0.02443  0.25619  0.75600  1.0000
  C   C300      1.0  0.01028  0.24307  0.78221  1.0000
  C   C301      1.0  0.02404  0.22921  0.75350  1.0000
  C   C302      1.0  0.04297  0.23551  0.73552  1.0000
  C   C303      1.0  0.03262  0.25993  0.68293  1.0000
  C   C304      1.0  0.06682  0.25440  0.71190  1.0000
  C   C305      1.0  0.01898  0.22310  0.80939  1.0000
  C   C306      1.0  0.99100  0.22944  0.80809  1.0000
  C   C307      1.0  0.00234  0.23517  0.87051  1.0000
  C   C308      1.0  0.08218  0.26595  0.86323  1.0000
  C   C309      1.0  0.06725  0.19702  0.83908  1.0000
  C   C310      1.0  0.09397  0.22886  0.87494  1.0000
  C   C311      1.0  0.07991  0.25212  0.81298  1.0000
  C   C312      1.0  0.05528  0.29235  0.81797  1.0000
  C   C313      1.0  0.01079  0.21977  0.90010  1.0000
  C   C314      1.0  0.99975  0.23067  0.92859  1.0000
  C   C315      1.0  0.03101  0.25180  0.94234  1.0000
  C   C316      1.0  0.03094  0.26728  0.97462  1.0000
  C   C317      1.0  0.05723  0.24035  0.95189  1.0000
  C   C318      1.0  0.04951  0.22749  0.97054  1.0000
  C   C319      1.0  0.03646  0.25184  0.92195  1.0000
  C   C320      1.0  0.03511  0.25079  0.91667  1.0000
  C   C321      1.0  0.01533  0.25695  0.02288  1.0000
  C   C322      1.0  0.05892  0.31121  0.03193  1.0000
  C   C323      1.0  0.97412  0.30445  0.03811  1.0000
  C   C324      1.0  0.02909  0.33814  0.08902  1.0000
  C   C325      1.0  0.03315  0.29310  0.07694  1.0000
  C   C326      1.0  0.05668  0.28334  0.06692  1.0000
  C   C327      1.0  0.05918  0.29816  0.02723  1.0000
  C   C328      1.0  0.08085  0.33724  0.01512  1.0000
  C   C329      1.0  0.98368  0.28614  0.14613  1.0000
  C   C330      1.0  0.04448  0.31411  0.11891  1.0000
  C   C331      1.0  0.99080  0.31180  0.16624  1.0000
  C   C332      1.0  0.02903  0.31167  0.14458  1.0000
  C   C333      1.0  0.05837  0.27877  0.21033  1.0000
  C   C334      1.0  0.06490  0.28362  0.19204  1.0000
  C   C335      1.0  0.04497  0.31140  0.12252  1.0000
  C   C336      1.0  0.05462  0.31967  0.11158  1.0000
  C   C337      1.0  0.98548  0.27054  0.19363  1.0000
  C   C338      1.0  0.05399  0.29228  0.20331  1.0000
  C   C339      1.0  0.99670  0.30085  0.25153  1.0000
  C   C340      1.0  0.02343  0.31486  0.26819  1.0000
  C   C341      1.0  0.06208  0.29649  0.24784  1.0000
  C   C342      1.0  0.10397  0.30831  0.24646  1.0000
  C   C343      1.0  0.03883  0.26736  0.17640  1.0000
  C   C344      1.0  0.06907  0.31332  0.22519  1.0000
  C   C345      1.0  0.99118  0.28318  0.28839  1.0000
  C   C346      1.0  0.03316  0.29572  0.32941  1.0000
  C   C347      1.0  0.01922  0.29961  0.38815  1.0000
  C   C348      1.0  0.02538  0.33012  0.37189  1.0000
  C   C349      1.0  0.04220  0.26238  0.34115  1.0000
  C   C350      1.0  0.04546  0.27842  0.40813  1.0000
  C   C351      1.0  0.05070  0.30661  0.27892  1.0000
  C   C352      1.0  0.07473  0.32545  0.33825  1.0000
  C   C353      1.0  0.99685  0.28147  0.42583  1.0000
  C   C354      1.0  0.03608  0.30847  0.39004  1.0000
  C   C355      1.0  0.99379  0.32547  0.45345  1.0000
  C   C356      1.0  0.05570  0.32163  0.50001  1.0000
  C   C357      1.0  0.01045  0.26950  0.45387  1.0000
  C   C358      1.0  0.04992  0.26790  0.49259  1.0000
  C   C359      1.0  0.08793  0.31391  0.37135  1.0000
  C   C360      1.0  0.07392  0.30745  0.37975  1.0000
  C   C361      1.0  0.01159  0.28614  0.50146  1.0000
  C   C362      1.0  0.99620  0.26050  0.53657  1.0000
  C   C363      1.0  0.99731  0.32283  0.51404  1.0000
  C   C364      1.0  0.97217  0.33670  0.60684  1.0000
  C   C365      1.0  0.07124  0.28678  0.55178  1.0000
  C   C366      1.0  0.08721  0.28552  0.61981  1.0000
  C   C367      1.0  0.08289  0.28523  0.52482  1.0000
  C   C368      1.0  0.02268  0.32801  0.51530  1.0000
  C   C369      1.0  0.03033  0.27956  0.59300  1.0000
  C   C370      1.0  0.04947  0.28291  0.60541  1.0000
  C   C371      1.0  0.02797  0.31513  0.65112  1.0000
  C   C372      1.0  0.00977  0.32227  0.66472  1.0000
  C   C373      1.0  0.05507  0.28054  0.64531  1.0000
  C   C374      1.0  0.07207  0.31339  0.68748  1.0000
  C   C375      1.0  0.05705  0.30757  0.60481  1.0000
  C   C376      1.0  0.07274  0.32719  0.63274  1.0000
  C   C377      1.0  0.98411  0.26911  0.64536  1.0000
  C   C378      1.0  0.99776  0.29428  0.76667  1.0000
  C   C379      1.0  0.04297  0.30542  0.68232  1.0000
  C   C380      1.0  0.02856  0.32883  0.80397  1.0000
  C   C381      1.0  0.03062  0.27412  0.74211  1.0000
  C   C382      1.0  0.07324  0.27690  0.78110  1.0000
  C   C383      1.0  0.03289  0.31027  0.69592  1.0000
  C   C384      1.0  0.02398  0.32678  0.69617  1.0000
  C   C385      1.0  0.97470  0.26472  0.76726  1.0000
  C   C386      1.0  0.01678  0.25706  0.80678  1.0000
  C   C387      1.0  0.99918  0.31275  0.86998  1.0000
  C   C388      1.0  0.04619  0.33719  0.86860  1.0000
  C   C389      1.0  0.03034  0.25489  0.83493  1.0000
  C   C390      1.0  0.07418  0.28809  0.85227  1.0000
  C   C391      1.0  0.06712  0.33333  0.79209  1.0000
  C   C392      1.0  0.10194  0.33183  0.80241  1.0000
  C   C393      1.0  0.00114  0.27024  0.92499  1.0000
  C   C394      1.0  0.05014  0.30041  0.91731  1.0000
  C   C395      1.0  0.01001  0.31422  0.97606  1.0000
  C   C396      1.0  0.04951  0.33537  0.94762  1.0000
  C   C397      1.0  0.06360  0.29303  0.94129  1.0000
  C   C398      1.0  0.05406  0.30417  0.94789  1.0000
  C   C399      1.0  0.03740  0.30516  0.87741  1.0000
  C   C400      1.0  0.03182  0.34773  0.91613  1.0000
  C   C401      1.0  0.96842  0.36335  0.00273  1.0000
  C   C402      1.0  0.05454  0.37630  0.00487  1.0000
  C   C403      1.0  0.01535  0.38124  0.03068  1.0000
  C   C404      1.0  0.00390  0.40106  0.07906  1.0000
  C   C405      1.0  0.02637  0.32981  0.04943  1.0000
  C   C406      1.0  0.05920  0.38118  0.12269  1.0000
  C   C407      1.0  0.06877  0.36521  0.97620  1.0000
  C   C408      1.0  0.06364  0.41892  0.05721  1.0000
  C   C409      1.0  0.98392  0.33704  0.12548  1.0000
  C   C410      1.0  0.01986  0.35234  0.13930  1.0000
  C   C411      1.0  0.02178  0.37399  0.20203  1.0000
  C   C412      1.0  0.03100  0.38475  0.13861  1.0000
  C   C413      1.0  0.02943  0.34079  0.14794  1.0000
  C   C414      1.0  0.04748  0.39417  0.18911  1.0000
  C   C415      1.0  0.05911  0.37039  0.09799  1.0000
  C   C416      1.0  0.03264  0.38834  0.10392  1.0000
  C   C417      1.0  0.97242  0.36328  0.20226  1.0000
  C   C418      1.0  0.03392  0.35523  0.21608  1.0000
  C   C419      1.0  0.97509  0.38224  0.22952  1.0000
  C   C420      1.0  0.00022  0.37131  0.28434  1.0000
  C   C421      1.0  0.06179  0.35039  0.24823  1.0000
  C   C422      1.0  0.07267  0.37390  0.24448  1.0000
  C   C423      1.0  0.06536  0.37404  0.19004  1.0000
  C   C424      1.0  0.05693  0.36636  0.19314  1.0000
  C   C425      1.0  0.97518  0.33620  0.34486  1.0000
  C   C426      1.0  0.01112  0.35380  0.31574  1.0000
  C   C427      1.0  0.96935  0.35894  0.38275  1.0000
  C   C428      1.0  0.02574  0.36688  0.33052  1.0000
  C   C429      1.0  0.07953  0.33655  0.32094  1.0000
  C   C430      1.0  0.09170  0.35284  0.36124  1.0000
  C   C431      1.0  0.04900  0.38967  0.27980  1.0000
  C   C432      1.0  0.09213  0.38836  0.31355  1.0000
  C   C433      1.0  0.03385  0.33621  0.40387  1.0000
  C   C434      1.0  0.01490  0.33874  0.43226  1.0000
  C   C435      1.0  0.97719  0.39470  0.48379  1.0000
  C   C436      1.0  0.01301  0.37891  0.45720  1.0000
  C   C437      1.0  0.08739  0.32495  0.42601  1.0000
  C   C438      1.0  0.05444  0.34420  0.50691  1.0000
  C   C439      1.0  0.04202  0.37381  0.39618  1.0000
  C   C440      1.0  0.07155  0.41298  0.46407  1.0000
  C   C441      1.0  0.01160  0.33206  0.55034  1.0000
  C   C442      1.0  0.02755  0.34385  0.50739  1.0000
  C   C443      1.0  0.00121  0.38070  0.48974  1.0000
  C   C444      1.0  0.03336  0.38574  0.58658  1.0000
  C   C445      1.0  0.03121  0.35373  0.53980  1.0000
  C   C446      1.0  0.09951  0.38695  0.58075  1.0000
  C   C447      1.0  0.05802  0.37548  0.46362  1.0000
  C   C448      1.0  0.08524  0.36673  0.47029  1.0000
  C   C449      1.0  0.99891  0.34950  0.58165  1.0000
  C   C450      1.0  0.98901  0.37378  0.59012  1.0000
  C   C451      1.0  0.02284  0.36723  0.62539  1.0000
  C   C452      1.0  0.03083  0.35347  0.65832  1.0000
  C   C453      1.0  0.04873  0.33900  0.67851  1.0000
  C   C454      1.0  0.05139  0.36251  0.67017  1.0000
  C   C455      1.0  0.06535  0.37587  0.62368  1.0000
  C   C456      1.0  0.07156  0.40482  0.62463  1.0000
  C   C457      1.0  0.98359  0.34095  0.70269  1.0000
  C   C458      1.0  0.05759  0.34037  0.72524  1.0000
  C   C459      1.0  0.97254  0.38343  0.76885  1.0000
  C   C460      1.0  0.03875  0.36770  0.75150  1.0000
  C   C461      1.0  0.04782  0.34545  0.76536  1.0000
  C   C462      1.0  0.06464  0.35779  0.76694  1.0000
  C   C463      1.0  0.03923  0.36667  0.67646  1.0000
  C   C464      1.0  0.09551  0.40500  0.73773  1.0000
  C   C465      1.0  0.99025  0.36005  0.77923  1.0000
  C   C466      1.0  0.04965  0.36869  0.85127  1.0000
  C   C467      1.0  0.96252  0.37586  0.83916  1.0000
  C   C468      1.0  0.04200  0.38906  0.82946  1.0000
  C   C469      1.0  0.06426  0.36469  0.86065  1.0000
  C   C470      1.0  0.09190  0.35851  0.88703  1.0000
  C   C471      1.0  0.03945  0.39373  0.85132  1.0000
  C   C472      1.0  0.06088  0.39399  0.81831  1.0000
  C   C473      1.0  0.03700  0.34508  0.92064  1.0000
  C   C474      1.0  0.02333  0.37202  0.94455  1.0000
  C   C475      1.0  0.01040  0.38044  0.92152  1.0000
  C   C476      1.0  0.04629  0.37489  0.96542  1.0000
  C   C477      1.0  0.05353  0.35191  0.97163  1.0000
  C   C478      1.0  0.08364  0.36066  0.99281  1.0000
  C   C479      1.0  0.03480  0.37321  0.88798  1.0000
  C   C480      1.0  0.04018  0.37258  0.95055  1.0000
  C   C481      1.0  0.98897  0.38105  0.00223  1.0000
  C   C482      1.0  0.01326  0.41169  0.01901  1.0000
  C   C483      1.0  0.00710  0.43579  0.04771  1.0000
  C   C484      1.0  0.03011  0.44713  0.08356  1.0000
  C   C485      1.0  0.06637  0.40167  0.09358  1.0000
  C   C486      1.0  0.05509  0.41150  0.07253  1.0000
  C   C487      1.0  0.08030  0.44696  0.01048  1.0000
  C   C488      1.0  0.06062  0.45535  0.02707  1.0000
  C   C489      1.0  0.99663  0.41979  0.13577  1.0000
  C   C490      1.0  0.03544  0.41110  0.13379  1.0000
  C   C491      1.0  0.98238  0.41478  0.11327  1.0000
  C   C492      1.0  0.02103  0.44440  0.15935  1.0000
  C   C493      1.0  0.03906  0.39759  0.12683  1.0000
  C   C494      1.0  0.08229  0.43756  0.16951  1.0000
  C   C495      1.0  0.01296  0.43124  0.10359  1.0000
  C   C496      1.0  0.08760  0.46145  0.14188  1.0000
  C   C497      1.0  0.02276  0.40128  0.20815  1.0000
  C   C498      1.0  0.01063  0.41117  0.24198  1.0000
  C   C499      1.0  0.99551  0.41360  0.20888  1.0000
  C   C500      1.0  0.04016  0.44293  0.26330  1.0000
  C   C501      1.0  0.03266  0.40688  0.24768  1.0000
  C   C502      1.0  0.06897  0.41305  0.27086  1.0000
  C   C503      1.0  0.06866  0.43470  0.22729  1.0000
  C   C504      1.0  0.03419  0.43820  0.24192  1.0000
  C   C505      1.0  0.98412  0.39920  0.29191  1.0000
  C   C506      1.0  0.02682  0.42103  0.36618  1.0000
  C   C507      1.0  0.02069  0.43463  0.36099  1.0000
  C   C508      1.0  0.03599  0.44757  0.36205  1.0000
  C   C509      1.0  0.05937  0.41049  0.33556  1.0000
  C   C510      1.0  0.07251  0.42265  0.38319  1.0000
  C   C511      1.0  0.08593  0.42945  0.28531  1.0000
  C   C512      1.0  0.08517  0.43485  0.32037  1.0000
  C   C513      1.0  0.96026  0.40745  0.44846  1.0000
  C   C514      1.0  0.01616  0.41259  0.43707  1.0000
  C   C515      1.0  0.02064  0.41159  0.44462  1.0000
  C   C516      1.0  0.02704  0.44797  0.48052  1.0000
  C   C517      1.0  0.04603  0.39839  0.42617  1.0000
  C   C518      1.0  0.11012  0.41718  0.49850  1.0000
  C   C519      1.0  0.04814  0.43376  0.39662  1.0000
  C   C520      1.0  0.08701  0.44823  0.39236  1.0000
  C   C521      1.0  0.05499  0.40446  0.48498  1.0000
  C   C522      1.0  0.99330  0.40679  0.51983  1.0000
  C   C523      1.0  0.98041  0.44000  0.51830  1.0000
  C   C524      1.0  0.02739  0.45096  0.55346  1.0000
  C   C525      1.0  0.02726  0.39090  0.55220  1.0000
  C   C526      1.0  0.06700  0.41189  0.58029  1.0000
  C   C527      1.0  0.07348  0.42438  0.47503  1.0000
  C   C528      1.0  0.07162  0.44612  0.55074  1.0000
  C   C529      1.0  0.01862  0.40427  0.58600  1.0000
  C   C530      1.0  0.05374  0.41080  0.63721  1.0000
  C   C531      1.0  0.01366  0.44618  0.63979  1.0000
  C   C532      1.0  0.06241  0.46353  0.67399  1.0000
  C   C533      1.0  0.05052  0.38063  0.66086  1.0000
  C   C534      1.0  0.09136  0.40862  0.67912  1.0000
  C   C535      1.0  0.03129  0.46739  0.59120  1.0000
  C   C536      1.0  0.07995  0.45632  0.62037  1.0000
  C   C537      1.0  0.01159  0.41525  0.74484  1.0000
  C   C538      1.0  0.05135  0.44792  0.70423  1.0000
  C   C539      1.0  0.98701  0.41979  0.75226  1.0000
  C   C540      1.0  0.01711  0.44348  0.77860  1.0000
  C   C541      1.0  0.05806  0.39187  0.75479  1.0000
  C   C542      1.0  0.07640  0.41596  0.80279  1.0000
  C   C543      1.0  0.01478  0.42717  0.68999  1.0000
  C   C544      1.0  0.06694  0.44256  0.71040  1.0000
  C   C545      1.0  0.98875  0.40959  0.81128  1.0000
  C   C546      1.0  0.99917  0.39400  0.81217  1.0000
  C   C547      1.0  0.96428  0.43533  0.85580  1.0000
  C   C548      1.0  0.98577  0.45468  0.87257  1.0000
  C   C549      1.0  0.02736  0.41566  0.89729  1.0000
  C   C550      1.0  0.07392  0.42133  0.85523  1.0000
  C   C551      1.0  0.06126  0.42852  0.81540  1.0000
  C   C552      1.0  0.07366  0.45340  0.81674  1.0000
  C   C553      1.0  0.97258  0.40835  0.93919  1.0000
  C   C554      1.0  0.97778  0.42232  0.90661  1.0000
  C   C555      1.0  0.97286  0.43670  0.94963  1.0000
  C   C556      1.0  0.03042  0.45383  0.93775  1.0000
  C   C557      1.0  0.08347  0.42064  0.93879  1.0000
  C   C558      1.0  0.07608  0.40242  0.98122  1.0000
  C   C559      1.0  0.05290  0.43614  0.89622  1.0000
  C   C560      1.0  0.08759  0.44946  0.92207  1.0000
  C   C561      1.0  0.00671  0.47155  0.01536  1.0000
  C   C562      1.0  0.03467  0.49666  0.01877  1.0000
  C   C563      1.0  0.02839  0.48904  0.04363  1.0000
  C   C564      1.0  0.01888  0.52164  0.06725  1.0000
  C   C565      1.0  0.03024  0.46945  0.03489  1.0000
  C   C566      1.0  0.07116  0.47855  0.07729  1.0000
  C   C567      1.0  0.07210  0.49229  0.97301  1.0000
  C   C568      1.0  0.09193  0.49945  0.00158  1.0000
  C   C569      1.0  0.99162  0.47268  0.07156  1.0000
  C   C570      1.0  0.00865  0.49120  0.16119  1.0000
  C   C571      1.0  0.00081  0.50488  0.15519  1.0000
  C   C572      1.0  0.02486  0.49656  0.17809  1.0000
  C   C573      1.0  0.03920  0.46016  0.15233  1.0000
  C   C574      1.0  0.08180  0.46713  0.16443  1.0000
  C   C575      1.0  0.06457  0.51461  0.10201  1.0000
  C   C576      1.0  0.09129  0.51916  0.11553  1.0000
  C   C577      1.0  0.01618  0.45445  0.17258  1.0000
  C   C578      1.0  0.01418  0.48401  0.20902  1.0000
  C   C579      1.0  0.01796  0.48535  0.26270  1.0000
  C   C580      1.0  0.02166  0.52669  0.26863  1.0000
  C   C581      1.0  0.04837  0.46188  0.22942  1.0000
  C   C582      1.0  0.08454  0.46764  0.25786  1.0000
  C   C583      1.0  0.04292  0.48918  0.22947  1.0000
  C   C584      1.0  0.06581  0.52652  0.17933  1.0000
  C   C585      1.0  0.01431  0.46098  0.33765  1.0000
  C   C586      1.0  0.00215  0.47781  0.32621  1.0000
  C   C587      1.0  0.94934  0.49149  0.40659  1.0000
  C   C588      1.0  0.02535  0.51876  0.37104  1.0000
  C   C589      1.0  0.07934  0.45310  0.32815  1.0000
  C   C590      1.0  0.09033  0.46224  0.37527  1.0000
  C   C591      1.0  0.00811  0.50116  0.28902  1.0000
  C   C592      1.0  0.07547  0.50984  0.32950  1.0000
  C   C593      1.0  0.98969  0.45489  0.41536  1.0000
  C   C594      1.0  0.04740  0.45831  0.40880  1.0000
  C   C595      1.0  0.98959  0.48440  0.46831  1.0000
  C   C596      1.0  0.02249  0.50408  0.48075  1.0000
  C   C597      1.0  0.07601  0.43642  0.45919  1.0000
  C   C598      1.0  0.06932  0.47274  0.47187  1.0000
  C   C599      1.0  0.00719  0.49177  0.40549  1.0000
  C   C600      1.0  0.06520  0.49215  0.40872  1.0000
  C   C601      1.0  0.01428  0.48313  0.49903  1.0000
  C   C602      1.0  0.03817  0.49364  0.53074  1.0000
  C   C603      1.0  0.98054  0.49723  0.58453  1.0000
  C   C604      1.0  0.01136  0.50306  0.54972  1.0000
  C   C605      1.0  0.05205  0.45061  0.56605  1.0000
  C   C606      1.0  0.09206  0.47094  0.56745  1.0000
  C   C607      1.0  0.04996  0.47967  0.48742  1.0000
  C   C608      1.0  0.11155  0.50883  0.45833  1.0000
  C   C609      1.0  0.02678  0.46303  0.59896  1.0000
  C   C610      1.0  0.05390  0.49499  0.64812  1.0000
  C   C611      1.0  0.02695  0.47129  0.66745  1.0000
  C   C612      1.0  0.01037  0.50679  0.69544  1.0000
  C   C613      1.0  0.06936  0.46675  0.63728  1.0000
  C   C614      1.0  0.09707  0.47321  0.67788  1.0000
  C   C615      1.0  0.05411  0.49865  0.57848  1.0000
  C   C616      1.0  0.08831  0.51469  0.61271  1.0000
  C   C617      1.0  0.00706  0.47838  0.67355  1.0000
  C   C618      1.0  0.02042  0.46682  0.71333  1.0000
  C   C619      1.0  0.01573  0.48883  0.73428  1.0000
  C   C620      1.0  0.04656  0.51489  0.79108  1.0000
  C   C621      1.0  0.09670  0.45905  0.71286  1.0000
  C   C622      1.0  0.11722  0.47795  0.77858  1.0000
  C   C623      1.0  0.06626  0.50083  0.67410  1.0000
  C   C624      1.0  0.05403  0.49564  0.70980  1.0000
  C   C625      1.0  0.00052  0.47016  0.81255  1.0000
  C   C626      1.0  0.00406  0.47719  0.80950  1.0000
  C   C627      1.0  0.98973  0.50227  0.85214  1.0000
  C   C628      1.0  0.00477  0.51480  0.88365  1.0000
  C   C629      1.0  0.05789  0.46253  0.85089  1.0000
  C   C630      1.0  0.09514  0.47468  0.88332  1.0000
  C   C631      1.0  0.03672  0.50316  0.82912  1.0000
  C   C632      1.0  0.07263  0.51197  0.83038  1.0000
  C   C633      1.0  0.99709  0.48321  0.90370  1.0000
  C   C634      1.0  0.99976  0.49111  0.91388  1.0000
  C   C635      1.0  0.01953  0.46721  0.97290  1.0000
  C   C636      1.0  0.00448  0.50467  0.97947  1.0000
  C   C637      1.0  0.06076  0.44930  0.96240  1.0000
  C   C638      1.0  0.09060  0.47801  0.97580  1.0000
  C   C639      1.0  0.07389  0.48687  0.91187  1.0000
  C   C640      1.0  0.07922  0.50836  0.91104  1.0000
  C   C641      1.0  0.97676  0.53061  0.01303  1.0000
  C   C642      1.0  0.04167  0.53783  0.02995  1.0000
  C   C643      1.0  0.00240  0.55995  0.04712  1.0000
  C   C644      1.0  0.05119  0.56480  0.04934  1.0000
  C   C645      1.0  0.04838  0.52031  0.09136  1.0000
  C   C646      1.0  0.06311  0.52712  0.09950  1.0000
  C   C647      1.0  0.08819  0.58209  0.98686  1.0000
  C   C648      1.0  0.05861  0.60516  0.02079  1.0000
  C   C649      1.0  0.97514  0.53288  0.05349  1.0000
  C   C650      1.0  0.98407  0.53522  0.13527  1.0000
  C   C651      1.0  0.99760  0.55862  0.17192  1.0000
  C   C652      1.0  0.05890  0.55973  0.15933  1.0000
  C   C653      1.0  0.05543  0.51816  0.13285  1.0000
  C   C654      1.0  0.07017  0.52559  0.17758  1.0000
  C   C655      1.0  0.06575  0.55272  0.08767  1.0000
  C   C656      1.0  0.04736  0.55937  0.10578  1.0000
  C   C657      1.0  0.03292  0.55030  0.19276  1.0000
  C   C658      1.0  0.03103  0.56743  0.20712  1.0000
  C   C659      1.0  0.04615  0.54963  0.23414  1.0000
  C   C660      1.0  0.07268  0.56484  0.28407  1.0000
  C   C661      1.0  0.07056  0.52600  0.23128  1.0000
  C   C662      1.0  0.06718  0.55076  0.30771  1.0000
  C   C663      1.0  0.06569  0.53616  0.21232  1.0000
  C   C664      1.0  0.06486  0.58843  0.24567  1.0000
  C   C665      1.0  0.99069  0.51263  0.28907  1.0000
  C   C666      1.0  0.03026  0.54889  0.30902  1.0000
  C   C667      1.0  0.00049  0.57447  0.38077  1.0000
  C   C668      1.0  0.01170  0.59236  0.40011  1.0000
  C   C669      1.0  0.05853  0.53633  0.33293  1.0000
  C   C670      1.0  0.08045  0.54599  0.38982  1.0000
  C   C671      1.0  0.03296  0.57104  0.30245  1.0000
  C   C672      1.0  0.05478  0.59281  0.35624  1.0000
  C   C673      1.0  0.00280  0.51761  0.40886  1.0000
  C   C674      1.0  0.00164  0.51425  0.46489  1.0000
  C   C675      1.0  0.05922  0.56427  0.45830  1.0000
  C   C676      1.0  0.01104  0.55558  0.45437  1.0000
  C   C677      1.0  0.06577  0.52394  0.44865  1.0000
  C   C678      1.0  0.09179  0.53598  0.49617  1.0000
  C   C679      1.0  0.99591  0.55412  0.42173  1.0000
  C   C680      1.0  0.11325  0.57905  0.44568  1.0000
  C   C681      1.0  0.94828  0.53095  0.50147  1.0000
  C   C682      1.0  0.00251  0.54015  0.52599  1.0000
  C   C683      1.0  0.99261  0.56259  0.57955  1.0000
  C   C684      1.0  0.03993  0.57889  0.55611  1.0000
  C   C685      1.0  0.05935  0.52669  0.55818  1.0000
  C   C686      1.0  0.09877  0.54217  0.55595  1.0000
  C   C687      1.0  0.06463  0.54694  0.49508  1.0000
  C   C688      1.0  0.06848  0.57021  0.47253  1.0000
  C   C689      1.0  0.98100  0.52333  0.59858  1.0000
  C   C690      1.0  0.01966  0.54068  0.63091  1.0000
  C   C691      1.0  0.97822  0.57359  0.64511  1.0000
  C   C692      1.0  0.02670  0.56731  0.64625  1.0000
  C   C693      1.0  0.02164  0.52144  0.68171  1.0000
  C   C694      1.0  0.05248  0.54259  0.65098  1.0000
  C   C695      1.0  0.05057  0.54127  0.57285  1.0000
  C   C696      1.0  0.04891  0.55962  0.62156  1.0000
  C   C697      1.0  0.98992  0.51308  0.70853  1.0000
  C   C698      1.0  0.03301  0.53700  0.73761  1.0000
  C   C699      1.0  0.99648  0.53900  0.77272  1.0000
  C   C700      1.0  0.01777  0.56437  0.81597  1.0000
  C   C701      1.0  0.01775  0.51208  0.73218  1.0000
  C   C702      1.0  0.09764  0.54951  0.78934  1.0000
  C   C703      1.0  0.03475  0.54655  0.67699  1.0000
  C   C704      1.0  0.09162  0.55802  0.71182  1.0000
  C   C705      1.0  0.96757  0.53042  0.79344  1.0000
  C   C706      1.0  0.05732  0.54638  0.80618  1.0000
  C   C707      1.0  0.96526  0.53709  0.85110  1.0000
  C   C708      1.0  0.01548  0.56420  0.87670  1.0000
  C   C709      1.0  0.01684  0.50411  0.83399  1.0000
  C   C710      1.0  0.06164  0.51944  0.89920  1.0000
  C   C711      1.0  0.03876  0.53165  0.80168  1.0000
  C   C712      1.0  0.09067  0.60092  0.81360  1.0000
  C   C713      1.0  0.00144  0.51005  0.87933  1.0000
  C   C714      1.0  0.97336  0.53336  0.92750  1.0000
  C   C715      1.0  0.96305  0.56559  0.01380  1.0000
  C   C716      1.0  0.98094  0.57122  0.96113  1.0000
  C   C717      1.0  0.04604  0.52005  0.98598  1.0000
  C   C718      1.0  0.08149  0.54399  0.00679  1.0000
  C   C719      1.0  0.04586  0.57749  0.88102  1.0000
  C   C720      1.0  0.05796  0.57320  0.92011  1.0000
  C   C721      1.0  0.99676  0.58025  0.95911  1.0000
  C   C722      1.0  0.03624  0.59584  0.02995  1.0000
  C   C723      1.0  0.99085  0.61878  0.01293  1.0000
  C   C724      1.0  0.00920  0.62394  0.07204  1.0000
  C   C725      1.0  0.07244  0.59247  0.08197  1.0000
  C   C726      1.0  0.10662  0.59828  0.10029  1.0000
  C   C727      1.0  0.06238  0.59208  0.99449  1.0000
  C   C728      1.0  0.10515  0.04244  0.01892  1.0000
  C   C729      1.0  0.98384  0.59157  0.09903  1.0000
  C   C730      1.0  0.01759  0.60414  0.08838  1.0000
  C   C731      1.0  0.01260  0.62942  0.14528  1.0000
  C   C732      1.0  0.00536  0.63390  0.18571  1.0000
  C   C733      1.0  0.04062  0.58841  0.12351  1.0000
  C   C734      1.0  0.02664  0.60856  0.17663  1.0000
  C   C735      1.0  0.05536  0.58691  0.08380  1.0000
  C   C736      1.0  0.08554  0.60956  0.10872  1.0000
  C   C737      1.0  0.96585  0.59231  0.20190  1.0000
  C   C738      1.0  0.04731  0.57468  0.21694  1.0000
  C   C739      1.0  0.97936  0.63815  0.25016  1.0000
  C   C740      1.0  0.01962  0.62514  0.25184  1.0000
  C   C741      1.0  0.02566  0.57794  0.25374  1.0000
  C   C742      1.0  0.05195  0.61734  0.27817  1.0000
  C   C743      1.0  0.04832  0.62542  0.19755  1.0000
  C   C744      1.0  0.04857  0.04659  0.15738  1.0000
  C   C745      1.0  0.99711  0.59263  0.30307  1.0000
  C   C746      1.0  0.99790  0.59297  0.30957  1.0000
  C   C747      1.0  0.99245  0.61026  0.36413  1.0000
  C   C748      1.0  0.01537  0.61685  0.38318  1.0000
  C   C749      1.0  0.06047  0.60353  0.31881  1.0000
  C   C750      1.0  0.06220  0.58637  0.37246  1.0000
  C   C751      1.0  0.03239  0.62633  0.29835  1.0000
  C   C752      1.0  0.06196  0.63856  0.32465  1.0000
  C   C753      1.0  0.01239  0.61431  0.38368  1.0000
  C   C754      1.0  0.01155  0.58646  0.44008  1.0000
  C   C755      1.0  0.00921  0.61742  0.46004  1.0000
  C   C756      1.0  0.00542  0.64241  0.46932  1.0000
  C   C757      1.0  0.06452  0.57815  0.45378  1.0000
  C   C758      1.0  0.05910  0.61032  0.48411  1.0000
  C   C759      1.0  0.04909  0.62090  0.39241  1.0000
  C   C760      1.0  0.05950  0.03681  0.44484  1.0000
  C   C761      1.0  0.01779  0.58778  0.51687  1.0000
  C   C762      1.0  0.08016  0.57189  0.53804  1.0000
  C   C763      1.0  0.02186  0.60942  0.54942  1.0000
  C   C764      1.0  0.02771  0.03921  0.56552  1.0000
  C   C765      1.0  0.04593  0.60346  0.55524  1.0000
  C   C766      1.0  0.05610  0.58484  0.61898  1.0000
  C   C767      1.0  0.05884  0.62722  0.50053  1.0000
  C   C768      1.0  0.07959  0.61248  0.55236  1.0000
  C   C769      1.0  0.97163  0.56861  0.57900  1.0000
  C   C770      1.0  0.03932  0.59595  0.65985  1.0000
  C   C771      1.0  0.97276  0.63174  0.64582  1.0000
  C   C772      1.0  0.00822  0.63223  0.68927  1.0000
  C   C773      1.0  0.04109  0.59949  0.65704  1.0000
  C   C774      1.0  0.08186  0.58532  0.66279  1.0000
  C   C775      1.0  0.02177  0.61107  0.61477  1.0000
  C   C776      1.0  0.10062  0.61327  0.58600  1.0000
  C   C777      1.0  0.00735  0.58253  0.67674  1.0000
  C   C778      1.0  0.04170  0.59135  0.70931  1.0000
  C   C779      1.0  0.99304  0.61260  0.78083  1.0000
  C   C780      1.0  0.02722  0.63998  0.76062  1.0000
  C   C781      1.0  0.01968  0.60616  0.78911  1.0000
  C   C782      1.0  0.06337  0.58253  0.74070  1.0000
  C   C783      1.0  0.03324  0.59130  0.73260  1.0000
  C   C784      1.0  0.03683  0.63853  0.72013  1.0000
  C   C785      1.0  0.96929  0.58093  0.81939  1.0000
  C   C786      1.0  0.00676  0.60526  0.79255  1.0000
  C   C787      1.0  0.98915  0.60986  0.84432  1.0000
  C   C788      1.0  0.06184  0.62248  0.85822  1.0000
  C   C789      1.0  0.04162  0.57419  0.85601  1.0000
  C   C790      1.0  0.10689  0.03449  0.89905  1.0000
  C   C791      1.0  0.03874  0.64041  0.76145  1.0000
  C   C792      1.0  0.12601  0.61966  0.81512  1.0000
  C   C793      1.0  0.98562  0.59444  0.88424  1.0000
  C   C794      1.0  0.03252  0.60774  0.92042  1.0000
  C   C795      1.0  0.00810  0.61184  0.99876  1.0000
  C   C796      1.0  0.04703  0.63678  0.94624  1.0000
  C   C797      1.0  0.05953  0.57103  0.93282  1.0000
  C   C798      1.0  0.10612  0.60170  0.95026  1.0000
  C   C799      1.0  0.07356  0.64577  0.86865  1.0000
  C   C800      1.0  0.06273  0.62840  0.93707  1.0000
  C   C801      1.0  0.08882  0.63737  0.98205  1.0000
  C   C802      1.0  0.14241  0.04020  0.03630  1.0000
  C   C803      1.0  0.07658  0.06338  0.01517  1.0000
  C   C804      1.0  0.10329  0.07967  0.07370  1.0000
  C   C805      1.0  0.13809  0.05112  0.07855  1.0000
  C   C806      1.0  0.17066  0.64674  0.05518  1.0000
  C   C807      1.0  0.13421  0.06506  0.00820  1.0000
  C   C808      1.0  0.19892  0.08840  0.05665  1.0000
  C   C809      1.0  0.09480  0.62382  0.08835  1.0000
  C   C810      1.0  0.13757  0.06964  0.12476  1.0000
  C   C811      1.0  0.12062  0.06875  0.19477  1.0000
  C   C812      1.0  0.06537  0.06877  0.16903  1.0000
  C   C813      1.0  0.16446  0.64457  0.13424  1.0000
  C   C814      1.0  0.17124  0.05325  0.16615  1.0000
  C   C815      1.0  0.11595  0.05626  0.07887  1.0000
  C   C816      1.0  0.19169  0.07024  0.12890  1.0000
  C   C817      1.0  0.10467  0.63974  0.20540  1.0000
  C   C818      1.0  0.13216  0.07924  0.20509  1.0000
  C   C819      1.0  0.09932  0.07499  0.23917  1.0000
  C   C820      1.0  0.11134  0.07598  0.29648  1.0000
  C   C821      1.0  0.21389  0.63523  0.20508  1.0000
  C   C822      1.0  0.18377  0.03477  0.24079  1.0000
  C   C823      1.0  0.12338  0.03502  0.23761  1.0000
  C   C824      1.0  0.20887  0.09627  0.24538  1.0000
  C   C825      1.0  0.10528  0.63832  0.27307  1.0000
  C   C826      1.0  0.13311  0.07873  0.36705  1.0000
  C   C827      1.0  0.09523  0.07908  0.34636  1.0000
  C   C828      1.0  0.14971  0.07727  0.35159  1.0000
  C   C829      1.0  0.11802  0.03924  0.36287  1.0000
  C   C830      1.0  0.17218  0.64421  0.34479  1.0000
  C   C831      1.0  0.12526  0.08377  0.24913  1.0000
  C   C832      1.0  0.16422  0.07266  0.32083  1.0000
  C   C833      1.0  0.07491  0.04528  0.40071  1.0000
  C   C834      1.0  0.11273  0.04618  0.41911  1.0000
  C   C835      1.0  0.10072  0.05332  0.41014  1.0000
  C   C836      1.0  0.10695  0.08665  0.46079  1.0000
  C   C837      1.0  0.12560  0.04931  0.42081  1.0000
  C   C838      1.0  0.19549  0.63062  0.48487  1.0000
  C   C839      1.0  0.19831  0.07901  0.38558  1.0000
  C   C840      1.0  0.17456  0.08710  0.44103  1.0000
  C   C841      1.0  0.10266  0.61572  0.50874  1.0000
  C   C842      1.0  0.12493  0.03877  0.51954  1.0000
  C   C843      1.0  0.08055  0.09413  0.52941  1.0000
  C   C844      1.0  0.16082  0.12028  0.57634  1.0000
  C   C845      1.0  0.17645  0.63090  0.59884  1.0000
  C   C846      1.0  0.17019  0.05368  0.58249  1.0000
  C   C847      1.0  0.11099  0.05746  0.52644  1.0000
  C   C848      1.0  0.18009  0.09075  0.49499  1.0000
  C   C849      1.0  0.07137  0.04018  0.60123  1.0000
  C   C850      1.0  0.11723  0.04652  0.60842  1.0000
  C   C851      1.0  0.11697  0.05691  0.65231  1.0000
  C   C852      1.0  0.12553  0.07639  0.68775  1.0000
  C   C853      1.0  0.13185  0.64469  0.67368  1.0000
  C   C854      1.0  0.17024  0.07377  0.65449  1.0000
  C   C855      1.0  0.14481  0.05945  0.58843  1.0000
  C   C856      1.0  0.19304  0.06129  0.60559  1.0000
  C   C857      1.0  0.13838  0.03458  0.73945  1.0000
  C   C858      1.0  0.10318  0.07131  0.72120  1.0000
  C   C859      1.0  0.10010  0.08042  0.74680  1.0000
  C   C860      1.0  0.09638  0.08799  0.74300  1.0000
  C   C861      1.0  0.14867  0.04072  0.76037  1.0000
  C   C862      1.0  0.16261  0.05785  0.77512  1.0000
  C   C863      1.0  0.15504  0.05160  0.68188  1.0000
  C   C864      1.0  0.13063  0.07222  0.70912  1.0000
  C   C865      1.0  0.12738  0.04100  0.79066  1.0000
  C   C866      1.0  0.08874  0.06102  0.79285  1.0000
  C   C867      1.0  0.09818  0.07111  0.85262  1.0000
  C   C868      1.0  0.09194  0.06226  0.83733  1.0000
  C   C869      1.0  0.14389  0.04430  0.85004  1.0000
  C   C870      1.0  0.18445  0.06797  0.87365  1.0000
  C   C871      1.0  0.14287  0.05934  0.78541  1.0000
  C   C872      1.0  0.16116  0.06814  0.83160  1.0000
  C   C873      1.0  0.07485  0.64317  0.91846  1.0000
  C   C874      1.0  0.13378  0.07046  0.90107  1.0000
  C   C875      1.0  0.09866  0.04735  0.93674  1.0000
  C   C876      1.0  0.14522  0.06895  0.96721  1.0000
  C   C877      1.0  0.16399  0.03871  0.90419  1.0000
  C   C878      1.0  0.15868  0.06529  0.00925  1.0000
  C   C879      1.0  0.15622  0.09088  0.91434  1.0000
  C   C880      1.0  0.17687  0.07190  0.92054  1.0000
  C   C881      1.0  0.09725  0.07263  0.99299  1.0000
  C   C882      1.0  0.12549  0.11227  0.01306  1.0000
  C   C883      1.0  0.14386  0.10426  0.02474  1.0000
  C   C884      1.0  0.18820  0.13470  0.08318  1.0000
  C   C885      1.0  0.13975  0.08262  0.03556  1.0000
  C   C886      1.0  0.16216  0.08800  0.08827  1.0000
  C   C887      1.0  0.15790  0.11865  0.00174  1.0000
  C   C888      1.0  0.19522  0.14641  0.03138  1.0000
  C   C889      1.0  0.11248  0.10524  0.09837  1.0000
  C   C890      1.0  0.14602  0.12228  0.08917  1.0000
  C   C891      1.0  0.08278  0.13452  0.15230  1.0000
  C   C892      1.0  0.12009  0.12697  0.20821  1.0000
  C   C893      1.0  0.14077  0.09145  0.15645  1.0000
  C   C894      1.0  0.12471  0.13151  0.17294  1.0000
  C   C895      1.0  0.15051  0.11926  0.11486  1.0000
  C   C896      1.0  0.14094  0.13089  0.15613  1.0000
  C   C897      1.0  0.09555  0.06839  0.19812  1.0000
  C   C898      1.0  0.10061  0.09243  0.23939  1.0000
  C   C899      1.0  0.08838  0.14855  0.23177  1.0000
  C   C900      1.0  0.13690  0.12292  0.24451  1.0000
  C   C901      1.0  0.16291  0.08435  0.25655  1.0000
  C   C902      1.0  0.17580  0.11964  0.27110  1.0000
  C   C903      1.0  0.14366  0.12688  0.20774  1.0000
  C   C904      1.0  0.18241  0.13514  0.26146  1.0000
  C   C905      1.0  0.08402  0.08930  0.25660  1.0000
  C   C906      1.0  0.11297  0.11214  0.34404  1.0000
  C   C907      1.0  0.10600  0.14414  0.37122  1.0000
  C   C908      1.0  0.11679  0.17481  0.40617  1.0000
  C   C909      1.0  0.18263  0.07646  0.36780  1.0000
  C   C910      1.0  0.14572  0.11509  0.41530  1.0000
  C   C911      1.0  0.09690  0.12890  0.32213  1.0000
  C   C912      1.0  0.16004  0.13320  0.30742  1.0000
  C   C913      1.0  0.11102  0.10462  0.42805  1.0000
  C   C914      1.0  0.12043  0.13440  0.40494  1.0000
  C   C915      1.0  0.07370  0.11536  0.41837  1.0000
  C   C916      1.0  0.10536  0.13880  0.49010  1.0000
  C   C917      1.0  0.17068  0.10179  0.46655  1.0000
  C   C918      1.0  0.14119  0.11455  0.52030  1.0000
  C   C919      1.0  0.13961  0.12799  0.39964  1.0000
  C   C920      1.0  0.18865  0.14577  0.37639  1.0000
  C   C921      1.0  0.08854  0.08604  0.50529  1.0000
  C   C922      1.0  0.10614  0.10008  0.52860  1.0000
  C   C923      1.0  0.10887  0.14589  0.53440  1.0000
  C   C924      1.0  0.17977  0.14397  0.61229  1.0000
  C   C925      1.0  0.15600  0.09220  0.56654  1.0000
  C   C926      1.0  0.17262  0.12230  0.55839  1.0000
  C   C927      1.0  0.12494  0.14030  0.45126  1.0000
  C   C928      1.0  0.18172  0.12786  0.53551  1.0000
  C   C929      1.0  0.09322  0.08927  0.59445  1.0000
  C   C930      1.0  0.11349  0.12721  0.63831  1.0000
  C   C931      1.0  0.08344  0.11734  0.68738  1.0000
  C   C932      1.0  0.12486  0.15437  0.67508  1.0000
  C   C933      1.0  0.14965  0.08165  0.67632  1.0000
  C   C934      1.0  0.20524  0.09651  0.68886  1.0000
  C   C935      1.0  0.18279  0.12860  0.59195  1.0000
  C   C936      1.0  0.15504  0.15690  0.62457  1.0000
  C   C937      1.0  0.10775  0.08368  0.65955  1.0000
  C   C938      1.0  0.09673  0.10191  0.72846  1.0000
  C   C939      1.0  0.12208  0.12957  0.74521  1.0000
  C   C940      1.0  0.13188  0.13250  0.77630  1.0000
  C   C941      1.0  0.12367  0.09857  0.72010  1.0000
  C   C942      1.0  0.15985  0.10862  0.78082  1.0000
  C   C943      1.0  0.15010  0.12744  0.70936  1.0000
  C   C944      1.0  0.17756  0.14916  0.73108  1.0000
  C   C945      1.0  0.10349  0.07146  0.82785  1.0000
  C   C946      1.0  0.12147  0.10036  0.84854  1.0000
  C   C947      1.0  0.10505  0.11450  0.84213  1.0000
  C   C948      1.0  0.13415  0.13954  0.89987  1.0000
  C   C949      1.0  0.15148  0.06495  0.87329  1.0000
  C   C950      1.0  0.14440  0.08091  0.85492  1.0000
  C   C951      1.0  0.15809  0.10490  0.78159  1.0000
  C   C952      1.0  0.19224  0.15760  0.83915  1.0000
  C   C953      1.0  0.08439  0.09536  0.92000  1.0000
  C   C954      1.0  0.12010  0.11951  0.92504  1.0000
  C   C955      1.0  0.05126  0.11407  0.96417  1.0000
  C   C956      1.0  0.11207  0.12627  0.98513  1.0000
  C   C957      1.0  0.13307  0.10913  0.93038  1.0000
  C   C958      1.0  0.18282  0.10132  0.99275  1.0000
  C   C959      1.0  0.13279  0.12507  0.88605  1.0000
  C   C960      1.0  0.18098  0.13912  0.93507  1.0000
  C   C961      1.0  0.09548  0.15022  0.02221  1.0000
  C   C962      1.0  0.13271  0.18793  0.00388  1.0000
  C   C963      1.0  0.13046  0.18670  0.04303  1.0000
  C   C964      1.0  0.10019  0.18492  0.07776  1.0000
  C   C965      1.0  0.16373  0.15710  0.06242  1.0000
  C   C966      1.0  0.15013  0.17272  0.06760  1.0000
  C   C967      1.0  0.17581  0.17034  0.97177  1.0000
  C   C968      1.0  0.17350  0.20228  0.01604  1.0000
  C   C969      1.0  0.10117  0.16163  0.08686  1.0000
  C   C970      1.0  0.15896  0.15484  0.13899  1.0000
  C   C971      1.0  0.04198  0.19823  0.12689  1.0000
  C   C972      1.0  0.12651  0.20139  0.15456  1.0000
  C   C973      1.0  0.14150  0.14781  0.13816  1.0000
  C   C974      1.0  0.18837  0.14888  0.18458  1.0000
  C   C975      1.0  0.13076  0.19501  0.10314  1.0000
  C   C976      1.0  0.18533  0.19984  0.12932  1.0000
  C   C977      1.0  0.09189  0.15548  0.20811  1.0000
  C   C978      1.0  0.14724  0.17742  0.21439  1.0000
  C   C979      1.0  0.06565  0.18146  0.24906  1.0000
  C   C980      1.0  0.11718  0.21563  0.29756  1.0000
  C   C981      1.0  0.15350  0.14111  0.25266  1.0000
  C   C982      1.0  0.16348  0.14814  0.26666  1.0000
  C   C983      1.0  0.13575  0.19166  0.15722  1.0000
  C   C984      1.0  0.13589  0.20306  0.25341  1.0000
  C   C985      1.0  0.10022  0.15661  0.30191  1.0000
  C   C986      1.0  0.11162  0.14682  0.31890  1.0000
  C   C987      1.0  0.08864  0.16992  0.38789  1.0000
  C   C988      1.0  0.10005  0.21015  0.42051  1.0000
  C   C989      1.0  0.14636  0.15056  0.33562  1.0000
  C   C990      1.0  0.18772  0.17359  0.37590  1.0000
  C   C991      1.0  0.09831  0.18956  0.29204  1.0000
  C   C992      1.0  0.18453  0.18550  0.32061  1.0000
  C   C993      1.0  0.10090  0.15989  0.41027  1.0000
  C   C994      1.0  0.09920  0.18192  0.43605  1.0000
  C   C995      1.0  0.07161  0.18632  0.45070  1.0000
  C   C996      1.0  0.12136  0.17648  0.47709  1.0000
  C   C997      1.0  0.17026  0.13454  0.45607  1.0000
  C   C998      1.0  0.21319  0.16555  0.50445  1.0000
  C   C999      1.0  0.19807  0.18800  0.42131  1.0000
  C   C1000     1.0  0.20235  0.19512  0.43063  1.0000
  C   C1001     1.0  0.12017  0.16719  0.49896  1.0000
  C   C1002     1.0  0.11470  0.18988  0.57174  1.0000
  C   C1003     1.0  0.11508  0.19636  0.52873  1.0000
  C   C1004     1.0  0.10421  0.19503  0.58719  1.0000
  C   C1005     1.0  0.16752  0.15929  0.54021  1.0000
  C   C1006     1.0  0.17380  0.17765  0.56772  1.0000
  C   C1007     1.0  0.13449  0.21235  0.47651  1.0000
  C   C1008     1.0  0.17184  0.22278  0.52460  1.0000
  C   C1009     1.0  0.12707  0.16492  0.58461  1.0000
  C   C1010     1.0  0.11905  0.15868  0.63270  1.0000
  C   C1011     1.0  0.11316  0.17757  0.66203  1.0000
  C   C1012     1.0  0.11379  0.16482  0.62851  1.0000
  C   C1013     1.0  0.16125  0.17400  0.68891  1.0000
  C   C1014     1.0  0.14898  0.18088  0.67179  1.0000
  C   C1015     1.0  0.14679  0.16284  0.61604  1.0000
  C   C1016     1.0  0.17268  0.20193  0.64225  1.0000
  C   C1017     1.0  0.10452  0.13973  0.73305  1.0000
  C   C1018     1.0  0.08512  0.17058  0.71459  1.0000
  C   C1019     1.0  0.13209  0.17603  0.71440  1.0000
  C   C1020     1.0  0.13210  0.18561  0.72097  1.0000
  C   C1021     1.0  0.12385  0.15452  0.72714  1.0000
  C   C1022     1.0  0.21006  0.15693  0.75585  1.0000
  C   C1023     1.0  0.13484  0.19041  0.71458  1.0000
  C   C1024     1.0  0.16347  0.20228  0.68548  1.0000
  C   C1025     1.0  0.11731  0.15961  0.80182  1.0000
  C   C1026     1.0  0.14123  0.17527  0.80603  1.0000
  C   C1027     1.0  0.08647  0.19228  0.87161  1.0000
  C   C1028     1.0  0.09667  0.20310  0.84643  1.0000
  C   C1029     1.0  0.17899  0.16895  0.82471  1.0000
  C   C1030     1.0  0.20292  0.15745  0.86470  1.0000
  C   C1031     1.0  0.16146  0.20809  0.77381  1.0000
  C   C1032     1.0  0.19904  0.20251  0.81440  1.0000
  C   C1033     1.0  0.09024  0.15560  0.89243  1.0000
  C   C1034     1.0  0.11490  0.17318  0.91339  1.0000
  C   C1035     1.0  0.12882  0.20695  0.96138  1.0000
  C   C1036     1.0  0.12855  0.21775  0.95769  1.0000
  C   C1037     1.0  0.15938  0.16106  0.98395  1.0000
  C   C1038     1.0  0.14539  0.17746  0.00001  1.0000
  C   C1039     1.0  0.14772  0.19204  0.89975  1.0000
  C   C1040     1.0  0.14145  0.18891  0.92993  1.0000
  C   C1041     1.0  0.13448  0.19553  0.99113  1.0000
  C   C1042     1.0  0.15330  0.23479  0.02736  1.0000
  C   C1043     1.0  0.09999  0.23759  0.01078  1.0000
  C   C1044     1.0  0.13677  0.27726  0.11960  1.0000
  C   C1045     1.0  0.17239  0.18202  0.05213  1.0000
  C   C1046     1.0  0.15749  0.23668  0.08977  1.0000
  C   C1047     1.0  0.12195  0.25799  0.00369  1.0000
  C   C1048     1.0  0.19357  0.27125  0.03871  1.0000
  C   C1049     1.0  0.07515  0.21717  0.11754  1.0000
  C   C1050     1.0  0.11742  0.24966  0.09725  1.0000
  C   C1051     1.0  0.09979  0.25735  0.17852  1.0000
  C   C1052     1.0  0.11763  0.30445  0.18468  1.0000
  C   C1053     1.0  0.13138  0.19921  0.12821  1.0000
  C   C1054     1.0  0.16647  0.23660  0.16762  1.0000
  C   C1055     1.0  0.19048  0.26962  0.12409  1.0000
  C   C1056     1.0  0.21915  0.25738  0.11530  1.0000
  C   C1057     1.0  0.10502  0.21955  0.20514  1.0000
  C   C1058     1.0  0.16666  0.25581  0.23038  1.0000
  C   C1059     1.0  0.08250  0.22846  0.27244  1.0000
  C   C1060     1.0  0.17835  0.27331  0.26987  1.0000
  C   C1061     1.0  0.14059  0.20858  0.26361  1.0000
  C   C1062     1.0  0.17021  0.25139  0.22808  1.0000
  C   C1063     1.0  0.14219  0.25725  0.19214  1.0000
  C   C1064     1.0  0.16748  0.26736  0.22719  1.0000
  C   C1065     1.0  0.07248  0.21788  0.28707  1.0000
  C   C1066     1.0  0.13200  0.21336  0.32430  1.0000
  C   C1067     1.0  0.06737  0.22886  0.34492  1.0000
  C   C1068     1.0  0.11843  0.28826  0.37632  1.0000
  C   C1069     1.0  0.17902  0.24248  0.32761  1.0000
  C   C1070     1.0  0.19012  0.23535  0.34631  1.0000
  C   C1071     1.0  0.15083  0.24059  0.26134  1.0000
  C   C1072     1.0  0.18548  0.26856  0.32532  1.0000
  C   C1073     1.0  0.09553  0.21909  0.40984  1.0000
  C   C1074     1.0  0.08187  0.24440  0.40272  1.0000
  C   C1075     1.0  0.12438  0.24665  0.44528  1.0000
  C   C1076     1.0  0.12216  0.28761  0.50544  1.0000
  C   C1077     1.0  0.14380  0.21714  0.46141  1.0000
  C   C1078     1.0  0.17188  0.23366  0.46255  1.0000
  C   C1079     1.0  0.18576  0.23160  0.36621  1.0000
  C   C1080     1.0  0.14996  0.25603  0.42158  1.0000
  C   C1081     1.0  0.08865  0.23567  0.46973  1.0000
  C   C1082     1.0  0.10776  0.24888  0.51895  1.0000
  C   C1083     1.0  0.10549  0.26576  0.53794  1.0000
  C   C1084     1.0  0.13217  0.25596  0.54323  1.0000
  C   C1085     1.0  0.13540  0.21673  0.57436  1.0000
  C   C1086     1.0  0.19256  0.24257  0.58845  1.0000
  C   C1087     1.0  0.14571  0.24928  0.49481  1.0000
  C   C1088     1.0  0.17950  0.29071  0.53098  1.0000
  C   C1089     1.0  0.10239  0.22937  0.60513  1.0000
  C   C1090     1.0  0.10277  0.23183  0.64698  1.0000
  C   C1091     1.0  0.10930  0.24798  0.63675  1.0000
  C   C1092     1.0  0.11044  0.26015  0.67709  1.0000
  C   C1093     1.0  0.13114  0.22316  0.67016  1.0000
  C   C1094     1.0  0.09959  0.24998  0.68492  1.0000
  C   C1095     1.0  0.15521  0.25853  0.57586  1.0000
  C   C1096     1.0  0.18846  0.24818  0.62280  1.0000
  C   C1097     1.0  0.08768  0.22726  0.70886  1.0000
  C   C1098     1.0  0.13074  0.24034  0.75349  1.0000
  C   C1099     1.0  0.11143  0.24951  0.77496  1.0000
  C   C1100     1.0  0.12392  0.25878  0.79379  1.0000
  C   C1101     1.0  0.16402  0.23503  0.73226  1.0000
  C   C1102     1.0  0.16087  0.22946  0.79700  1.0000
  C   C1103     1.0  0.18144  0.26057  0.69893  1.0000
  C   C1104     1.0  0.16316  0.25475  0.66311  1.0000
  C   C1105     1.0  0.10690  0.19451  0.77468  1.0000
  C   C1106     1.0  0.11371  0.24825  0.81870  1.0000
  C   C1107     1.0  0.10974  0.27205  0.85108  1.0000
  C   C1108     1.0  0.10683  0.27782  0.89290  1.0000
  C   C1109     1.0  0.13941  0.24510  0.84217  1.0000
  C   C1110     1.0  0.18128  0.23814  0.85221  1.0000
  C   C1111     1.0  0.13526  0.24768  0.81926  1.0000
  C   C1112     1.0  0.19199  0.26950  0.78816  1.0000
  C   C1113     1.0  0.10354  0.21900  0.92818  1.0000
  C   C1114     1.0  0.12738  0.25695  0.94483  1.0000
  C   C1115     1.0  0.10741  0.24295  0.95655  1.0000
  C   C1116     1.0  0.11216  0.27398  0.93907  1.0000
  C   C1117     1.0  0.14130  0.21655  0.91008  1.0000
  C   C1118     1.0  0.17994  0.24256  0.98625  1.0000
  C   C1119     1.0  0.15237  0.23933  0.88338  1.0000
  C   C1120     1.0  0.17662  0.27506  0.92705  1.0000
  C   C1121     1.0  0.06389  0.27439  0.99293  1.0000
  C   C1122     1.0  0.13139  0.28439  0.02451  1.0000
  C   C1123     1.0  0.10198  0.30648  0.07885  1.0000
  C   C1124     1.0  0.13401  0.33555  0.06305  1.0000
  C   C1125     1.0  0.15685  0.25349  0.08576  1.0000
  C   C1126     1.0  0.16876  0.30451  0.04958  1.0000
  C   C1127     1.0  0.18682  0.29410  0.98443  1.0000
  C   C1128     1.0  0.17052  0.32248  0.00377  1.0000
  C   C1129     1.0  0.09405  0.29683  0.10598  1.0000
  C   C1130     1.0  0.15305  0.31043  0.12751  1.0000
  C   C1131     1.0  0.10954  0.31375  0.13310  1.0000
  C   C1132     1.0  0.12926  0.33400  0.16882  1.0000
  C   C1133     1.0  0.15542  0.26458  0.17478  1.0000
  C   C1134     1.0  0.16657  0.27824  0.19520  1.0000
  C   C1135     1.0  0.16944  0.31265  0.11262  1.0000
  C   C1136     1.0  0.18861  0.32586  0.13126  1.0000
  C   C1137     1.0  0.10172  0.30133  0.19742  1.0000
  C   C1138     1.0  0.08712  0.29220  0.26555  1.0000
  C   C1139     1.0  0.08330  0.29364  0.24554  1.0000
  C   C1140     1.0  0.16722  0.31114  0.27704  1.0000
  C   C1141     1.0  0.10125  0.27854  0.22858  1.0000
  C   C1142     1.0  0.20671  0.27374  0.26614  1.0000
  C   C1143     1.0  0.12991  0.32575  0.23349  1.0000
  C   C1144     1.0  0.16496  0.32793  0.22440  1.0000
  C   C1145     1.0  0.11236  0.26715  0.25409  1.0000
  C   C1146     1.0  0.11878  0.28627  0.31047  1.0000
  C   C1147     1.0  0.08571  0.29240  0.35914  1.0000
  C   C1148     1.0  0.12913  0.32288  0.36673  1.0000
  C   C1149     1.0  0.13708  0.26453  0.36715  1.0000
  C   C1150     1.0  0.20270  0.28176  0.36122  1.0000
  C   C1151     1.0  0.11616  0.31222  0.32940  1.0000
  C   C1152     1.0  0.17555  0.33691  0.27399  1.0000
  C   C1153     1.0  0.05234  0.29730  0.37731  1.0000
  C   C1154     1.0  0.11307  0.28683  0.46263  1.0000
  C   C1155     1.0  0.08426  0.29258  0.48943  1.0000
  C   C1156     1.0  0.12483  0.32489  0.44342  1.0000
  C   C1157     1.0  0.16846  0.28511  0.44723  1.0000
  C   C1158     1.0  0.16107  0.30446  0.47703  1.0000
  C   C1159     1.0  0.14239  0.28839  0.40491  1.0000
  C   C1160     1.0  0.21908  0.32447  0.43981  1.0000
  C   C1161     1.0  0.09965  0.27748  0.51476  1.0000
  C   C1162     1.0  0.11287  0.28448  0.49736  1.0000
  C   C1163     1.0  0.11192  0.33104  0.51761  1.0000
  C   C1164     1.0  0.12167  0.31637  0.57082  1.0000
  C   C1165     1.0  0.15069  0.27908  0.56000  1.0000
  C   C1166     1.0  0.17777  0.30120  0.55040  1.0000
  C   C1167     1.0  0.17014  0.30313  0.49588  1.0000
  C   C1168     1.0  0.17616  0.32025  0.52153  1.0000
  C   C1169     1.0  0.11665  0.29272  0.60973  1.0000
  C   C1170     1.0  0.13562  0.27646  0.62982  1.0000
  C   C1171     1.0  0.05950  0.28886  0.62506  1.0000
  C   C1172     1.0  0.18686  0.32241  0.64604  1.0000
  C   C1173     1.0  0.17093  0.29223  0.65597  1.0000
  C   C1174     1.0  0.18860  0.28160  0.69714  1.0000
  C   C1175     1.0  0.11726  0.30063  0.59266  1.0000
  C   C1176     1.0  0.14289  0.31631  0.66738  1.0000
  C   C1177     1.0  0.06953  0.29543  0.66634  1.0000
  C   C1178     1.0  0.11057  0.31808  0.75007  1.0000
  C   C1179     1.0  0.07544  0.32640  0.74139  1.0000
  C   C1180     1.0  0.14547  0.33408  0.77831  1.0000
  C   C1181     1.0  0.15139  0.27350  0.78729  1.0000
  C   C1182     1.0  0.16873  0.28204  0.78513  1.0000
  C   C1183     1.0  0.12879  0.30818  0.70855  1.0000
  C   C1184     1.0  0.16708  0.31390  0.72615  1.0000
  C   C1185     1.0  0.09783  0.27418  0.78215  1.0000
  C   C1186     1.0  0.14386  0.30965  0.82137  1.0000
  C   C1187     1.0  0.08413  0.30711  0.82452  1.0000
  C   C1188     1.0  0.11653  0.32456  0.86912  1.0000
  C   C1189     1.0  0.14533  0.27348  0.88270  1.0000
  C   C1190     1.0  0.16281  0.28406  0.92295  1.0000
  C   C1191     1.0  0.10764  0.32640  0.79227  1.0000
  C   C1192     1.0  0.20592  0.35535  0.84989  1.0000
  C   C1193     1.0  0.08662  0.27183  0.87413  1.0000
  C   C1194     1.0  0.13178  0.31002  0.91029  1.0000
  C   C1195     1.0  0.15082  0.30514  0.91018  1.0000
  C   C1196     1.0  0.15129  0.33488  0.99491  1.0000
  C   C1197     1.0  0.12249  0.28161  0.94153  1.0000
  C   C1198     1.0  0.19929  0.30758  0.96845  1.0000
  C   C1199     1.0  0.15342  0.28474  0.89166  1.0000
  C   C1200     1.0  0.17331  0.33119  0.94743  1.0000
  C   C1201     1.0  0.07644  0.33940  0.04187  1.0000
  C   C1202     1.0  0.15941  0.37351  0.01481  1.0000
  C   C1203     1.0  0.07458  0.37148  0.03686  1.0000
  C   C1204     1.0  0.13443  0.39468  0.11506  1.0000
  C   C1205     1.0  0.13776  0.35600  0.08791  1.0000
  C   C1206     1.0  0.18162  0.35806  0.01686  1.0000
  C   C1207     1.0  0.16424  0.37892  0.03806  1.0000
  C   C1208     1.0  0.15472  0.38891  0.01070  1.0000
  C   C1209     1.0  0.07358  0.38909  0.09438  1.0000
  C   C1210     1.0  0.16630  0.32139  0.14012  1.0000
  C   C1211     1.0  0.08653  0.38315  0.14486  1.0000
  C   C1212     1.0  0.12423  0.38760  0.16821  1.0000
  C   C1213     1.0  0.15974  0.34881  0.17573  1.0000
  C   C1214     1.0  0.17910  0.35772  0.17721  1.0000
  C   C1215     1.0  0.14796  0.35336  0.08328  1.0000
  C   C1216     1.0  0.18583  0.39904  0.12613  1.0000
  C   C1217     1.0  0.11875  0.31750  0.21300  1.0000
  C   C1218     1.0  0.12552  0.35399  0.21965  1.0000
  C   C1219     1.0  0.08971  0.37350  0.26932  1.0000
  C   C1220     1.0  0.14175  0.39287  0.25518  1.0000
  C   C1221     1.0  0.11965  0.35758  0.21462  1.0000
  C   C1222     1.0  0.15231  0.34357  0.27714  1.0000
  C   C1223     1.0  0.14310  0.36708  0.17257  1.0000
  C   C1224     1.0  0.12264  0.40307  0.24720  1.0000
  C   C1225     1.0  0.09307  0.34517  0.28254  1.0000
  C   C1226     1.0  0.14196  0.37484  0.33339  1.0000
  C   C1227     1.0  0.05916  0.35305  0.39568  1.0000
  C   C1228     1.0  0.15170  0.36825  0.39446  1.0000
  C   C1229     1.0  0.11350  0.33748  0.32990  1.0000
  C   C1230     1.0  0.18969  0.36553  0.35487  1.0000
  C   C1231     1.0  0.14922  0.38385  0.34763  1.0000
  C   C1232     1.0  0.18545  0.39589  0.30629  1.0000
  C   C1233     1.0  0.09688  0.36848  0.41265  1.0000
  C   C1234     1.0  0.12916  0.35651  0.46656  1.0000
  C   C1235     1.0  0.09792  0.35865  0.44293  1.0000
  C   C1236     1.0  0.13260  0.39184  0.45886  1.0000
  C   C1237     1.0  0.16961  0.34720  0.47587  1.0000
  C   C1238     1.0  0.18288  0.33612  0.45677  1.0000
  C   C1239     1.0  0.16402  0.35691  0.40076  1.0000
  C   C1240     1.0  0.15222  0.38496  0.47463  1.0000
  C   C1241     1.0  0.05653  0.35038  0.53794  1.0000
  C   C1242     1.0  0.12104  0.36732  0.54223  1.0000
  C   C1243     1.0  0.09761  0.36050  0.52397  1.0000
  C   C1244     1.0  0.13617  0.40197  0.56993  1.0000
  C   C1245     1.0  0.13013  0.34981  0.53947  1.0000
  C   C1246     1.0  0.17382  0.36743  0.55639  1.0000
  C   C1247     1.0  0.15697  0.34196  0.52346  1.0000
  C   C1248     1.0  0.18088  0.36878  0.53340  1.0000
  C   C1249     1.0  0.10102  0.34039  0.57948  1.0000
  C   C1250     1.0  0.15741  0.34488  0.62842  1.0000
  C   C1251     1.0  0.10501  0.35805  0.65697  1.0000
  C   C1252     1.0  0.13124  0.38409  0.69230  1.0000
  C   C1253     1.0  0.14459  0.33310  0.69614  1.0000
  C   C1254     1.0  0.17509  0.35781  0.67481  1.0000
  C   C1255     1.0  0.15967  0.35457  0.56392  1.0000
  C   C1256     1.0  0.16503  0.38298  0.61471  1.0000
  C   C1257     1.0  0.08780  0.35364  0.68572  1.0000
  C   C1258     1.0  0.15663  0.35721  0.73222  1.0000
  C   C1259     1.0  0.10786  0.36377  0.73418  1.0000
  C   C1260     1.0  0.13459  0.38736  0.80199  1.0000
  C   C1261     1.0  0.14933  0.33395  0.73963  1.0000
  C   C1262     1.0  0.17817  0.35870  0.76824  1.0000
  C   C1263     1.0  0.16156  0.39337  0.70860  1.0000
  C   C1264     1.0  0.16456  0.38378  0.71768  1.0000
  C   C1265     1.0  0.06325  0.33767  0.81191  1.0000
  C   C1266     1.0  0.11463  0.34046  0.80498  1.0000
  C   C1267     1.0  0.13616  0.37875  0.82867  1.0000
  C   C1268     1.0  0.13558  0.37597  0.89003  1.0000
  C   C1269     1.0  0.11688  0.34326  0.86451  1.0000
  C   C1270     1.0  0.19720  0.35086  0.85154  1.0000
  C   C1271     1.0  0.15507  0.37874  0.77942  1.0000
  C   C1272     1.0  0.17155  0.37668  0.84810  1.0000
  C   C1273     1.0  0.08671  0.35377  0.88210  1.0000
  C   C1274     1.0  0.14859  0.36747  0.88970  1.0000
  C   C1275     1.0  0.07491  0.36858  0.92029  1.0000
  C   C1276     1.0  0.10165  0.38507  0.97810  1.0000
  C   C1277     1.0  0.17643  0.31641  0.97251  1.0000
  C   C1278     1.0  0.16378  0.33827  0.96488  1.0000
  C   C1279     1.0  0.17746  0.35173  0.90652  1.0000
  C   C1280     1.0  0.14470  0.35538  0.93368  1.0000
  C   C1281     1.0  0.09577  0.41969  0.99355  1.0000
  C   C1282     1.0  0.08413  0.43102  0.03336  1.0000
  C   C1283     1.0  0.09690  0.43865  0.07596  1.0000
  C   C1284     1.0  0.14339  0.42945  0.06477  1.0000
  C   C1285     1.0  0.15366  0.40025  0.05022  1.0000
  C   C1286     1.0  0.16948  0.39550  0.08701  1.0000
  C   C1287     1.0  0.14484  0.41070  0.03222  1.0000
  C   C1288     1.0  0.16443  0.45312  0.00282  1.0000
  C   C1289     1.0  0.10054  0.39736  0.13675  1.0000
  C   C1290     1.0  0.09008  0.42242  0.11842  1.0000
  C   C1291     1.0  0.11127  0.43295  0.13644  1.0000
  C   C1292     1.0  0.13986  0.44561  0.19333  1.0000
  C   C1293     1.0  0.15779  0.39268  0.16405  1.0000
  C   C1294     1.0  0.13114  0.40857  0.18297  1.0000
  C   C1295     1.0  0.17582  0.42211  0.07508  1.0000
  C   C1296     1.0  0.20196  0.46389  0.13310  1.0000
  C   C1297     1.0  0.10061  0.39005  0.20877  1.0000
  C   C1298     1.0  0.10738  0.39456  0.16563  1.0000
  C   C1299     1.0  0.10991  0.43449  0.19829  1.0000
  C   C1300     1.0  0.10438  0.43288  0.24817  1.0000
  C   C1301     1.0  0.11151  0.40389  0.24204  1.0000
  C   C1302     1.0  0.15677  0.37735  0.30619  1.0000
  C   C1303     1.0  0.13676  0.44893  0.20348  1.0000
  C   C1304     1.0  0.16348  0.43824  0.22550  1.0000
  C   C1305     1.0  0.11674  0.39067  0.31276  1.0000
  C   C1306     1.0  0.09012  0.41515  0.34380  1.0000
  C   C1307     1.0  0.13870  0.46836  0.34359  1.0000
  C   C1308     1.0  0.10909  0.43267  0.34658  1.0000
  C   C1309     1.0  0.11907  0.41319  0.35303  1.0000
  C   C1310     1.0  0.18911  0.40622  0.38416  1.0000
  C   C1311     1.0  0.15340  0.44188  0.29606  1.0000
  C   C1312     1.0  0.17372  0.43958  0.34506  1.0000
  C   C1313     1.0  0.09379  0.39084  0.35564  1.0000
  C   C1314     1.0  0.13850  0.40571  0.42736  1.0000
  C   C1315     1.0  0.09631  0.45341  0.43693  1.0000
  C   C1316     1.0  0.12574  0.46984  0.46475  1.0000
  C   C1317     1.0  0.15395  0.38691  0.47136  1.0000
  C   C1318     1.0  0.18814  0.41496  0.49863  1.0000
  C   C1319     1.0  0.15352  0.45113  0.35296  1.0000
  C   C1320     1.0  0.19955  0.44779  0.46758  1.0000
  C   C1321     1.0  0.12332  0.41065  0.52841  1.0000
  C   C1322     1.0  0.10113  0.42295  0.53695  1.0000
  C   C1323     1.0  0.06136  0.43218  0.57416  1.0000
  C   C1324     1.0  0.13653  0.44744  0.60006  1.0000
  C   C1325     1.0  0.15076  0.41073  0.51895  1.0000
  C   C1326     1.0  0.18274  0.42023  0.53542  1.0000
  C   C1327     1.0  0.11950  0.44702  0.49320  1.0000
  C   C1328     1.0  0.20279  0.46178  0.50959  1.0000
  C   C1329     1.0  0.07358  0.39956  0.59407  1.0000
  C   C1330     1.0  0.10258  0.41939  0.63785  1.0000
  C   C1331     1.0  0.14226  0.43029  0.64799  1.0000
  C   C1332     1.0  0.15648  0.46731  0.67237  1.0000
  C   C1333     1.0  0.14028  0.39330  0.66584  1.0000
  C   C1334     1.0  0.16836  0.40854  0.67111  1.0000
  C   C1335     1.0  0.16400  0.43620  0.60951  1.0000
  C   C1336     1.0  0.20447  0.44525  0.61200  1.0000
  C   C1337     1.0  0.14687  0.39487  0.70463  1.0000
  C   C1338     1.0  0.08636  0.42236  0.72639  1.0000
  C   C1339     1.0  0.14626  0.41692  0.69818  1.0000
  C   C1340     1.0  0.10142  0.43686  0.74327  1.0000
  C   C1341     1.0  0.16282  0.40934  0.73319  1.0000
  C   C1342     1.0  0.18260  0.41244  0.77719  1.0000
  C   C1343     1.0  0.14125  0.44740  0.69405  1.0000
  C   C1344     1.0  0.17770  0.45816  0.72017  1.0000
  C   C1345     1.0  0.09799  0.42429  0.81783  1.0000
  C   C1346     1.0  0.14037  0.41139  0.84880  1.0000
  C   C1347     1.0  0.11895  0.43728  0.85936  1.0000
  C   C1348     1.0  0.12028  0.46982  0.85716  1.0000
  C   C1349     1.0  0.16566  0.39396  0.83607  1.0000
  C   C1350     1.0  0.17476  0.42306  0.88923  1.0000
  C   C1351     1.0  0.14835  0.43103  0.83949  1.0000
  C   C1352     1.0  0.15682  0.44516  0.83857  1.0000
  C   C1353     1.0  0.09426  0.41083  0.86989  1.0000
  C   C1354     1.0  0.12315  0.40770  0.93567  1.0000
  C   C1355     1.0  0.08781  0.45041  0.94996  1.0000
  C   C1356     1.0  0.14735  0.45082  0.01353  1.0000
  C   C1357     1.0  0.13777  0.38949  0.95941  1.0000
  C   C1358     1.0  0.14088  0.40974  0.95635  1.0000
  C   C1359     1.0  0.14291  0.42485  0.86323  1.0000
  C   C1360     1.0  0.14665  0.45435  0.94519  1.0000
  C   C1361     1.0  0.07541  0.45980  0.01490  1.0000
  C   C1362     1.0  0.12975  0.49862  0.04827  1.0000
  C   C1363     1.0  0.07013  0.50445  0.05948  1.0000
  C   C1364     1.0  0.13638  0.52519  0.10092  1.0000
  C   C1365     1.0  0.15756  0.46118  0.04420  1.0000
  C   C1366     1.0  0.18591  0.47811  0.10388  1.0000
  C   C1367     1.0  0.15487  0.48729  0.99166  1.0000
  C   C1368     1.0  0.20058  0.52609  0.99729  1.0000
  C   C1369     1.0  0.05331  0.47078  0.09287  1.0000
  C   C1370     1.0  0.10708  0.45750  0.13411  1.0000
  C   C1371     1.0  0.10395  0.49935  0.11017  1.0000
  C   C1372     1.0  0.13214  0.50404  0.17164  1.0000
  C   C1373     1.0  0.13211  0.43380  0.15326  1.0000
  C   C1374     1.0  0.17139  0.47883  0.19642  1.0000
  C   C1375     1.0  0.14499  0.47981  0.09942  1.0000
  C   C1376     1.0  0.18058  0.50817  0.12833  1.0000
  C   C1377     1.0  0.09936  0.46444  0.17386  1.0000
  C   C1378     1.0  0.11550  0.47797  0.21884  1.0000
  C   C1379     1.0  0.08892  0.49715  0.20781  1.0000
  C   C1380     1.0  0.10367  0.52483  0.25727  1.0000
  C   C1381     1.0  0.15630  0.46451  0.23324  1.0000
  C   C1382     1.0  0.19028  0.48068  0.26898  1.0000
  C   C1383     1.0  0.16968  0.49661  0.18897  1.0000
  C   C1384     1.0  0.16264  0.54228  0.26060  1.0000
  C   C1385     1.0  0.10702  0.43748  0.30055  1.0000
  C   C1386     1.0  0.09990  0.48988  0.33360  1.0000
  C   C1387     1.0  0.10372  0.50951  0.31346  1.0000
  C   C1388     1.0  0.14963  0.51285  0.35252  1.0000
  C   C1389     1.0  0.16761  0.47038  0.36941  1.0000
  C   C1390     1.0  0.17567  0.47320  0.36315  1.0000
  C   C1391     1.0  0.18740  0.50031  0.30677  1.0000
  C   C1392     1.0  0.16195  0.52038  0.34596  1.0000
  C   C1393     1.0  0.05699  0.48125  0.33837  1.0000
  C   C1394     1.0  0.10587  0.46683  0.44740  1.0000
  C   C1395     1.0  0.11741  0.48483  0.46333  1.0000
  C   C1396     1.0  0.11255  0.50688  0.42552  1.0000
  C   C1397     1.0  0.16345  0.45053  0.45749  1.0000
  C   C1398     1.0  0.18976  0.47066  0.44403  1.0000
  C   C1399     1.0  0.15047  0.50771  0.41109  1.0000
  C   C1400     1.0  0.16763  0.52072  0.41746  1.0000
  C   C1401     1.0  0.09641  0.46760  0.50907  1.0000
  C   C1402     1.0  0.09270  0.48331  0.52998  1.0000
  C   C1403     1.0  0.08330  0.46061  0.53531  1.0000
  C   C1404     1.0  0.15136  0.53835  0.59185  1.0000
  C   C1405     1.0  0.17724  0.46495  0.55448  1.0000
  C   C1406     1.0  0.18339  0.46295  0.57418  1.0000
  C   C1407     1.0  0.15674  0.49432  0.50202  1.0000
  C   C1408     1.0  0.17025  0.50579  0.53080  1.0000
  C   C1409     1.0  0.09465  0.47143  0.60798  1.0000
  C   C1410     1.0  0.10541  0.48512  0.63044  1.0000
  C   C1411     1.0  0.08397  0.48871  0.66322  1.0000
  C   C1412     1.0  0.09524  0.51823  0.70383  1.0000
  C   C1413     1.0  0.13990  0.47925  0.65441  1.0000
  C   C1414     1.0  0.17145  0.48632  0.66954  1.0000
  C   C1415     1.0  0.14715  0.46930  0.62540  1.0000
  C   C1416     1.0  0.15392  0.49668  0.63410  1.0000
  C   C1417     1.0  0.09578  0.45182  0.70288  1.0000
  C   C1418     1.0  0.11323  0.47609  0.72578  1.0000
  C   C1419     1.0  0.09659  0.47022  0.75684  1.0000
  C   C1420     1.0  0.11389  0.51373  0.75974  1.0000
  C   C1421     1.0  0.14468  0.47545  0.71824  1.0000
  C   C1422     1.0  0.14006  0.47088  0.77802  1.0000
  C   C1423     1.0  0.15115  0.50080  0.69371  1.0000
  C   C1424     1.0  0.19648  0.49385  0.72957  1.0000
  C   C1425     1.0  0.12836  0.46593  0.77852  1.0000
  C   C1426     1.0  0.12640  0.46785  0.81465  1.0000
  C   C1427     1.0  0.08158  0.48034  0.81630  1.0000
  C   C1428     1.0  0.14940  0.52263  0.86389  1.0000
  C   C1429     1.0  0.10892  0.47368  0.81251  1.0000
  C   C1430     1.0  0.16295  0.48535  0.86381  1.0000
  C   C1431     1.0  0.17504  0.48944  0.79058  1.0000
  C   C1432     1.0  0.16896  0.51305  0.80996  1.0000
  C   C1433     1.0  0.07479  0.44985  0.89504  1.0000
  C   C1434     1.0  0.09990  0.45261  0.92724  1.0000
  C   C1435     1.0  0.11280  0.48502  0.94962  1.0000
  C   C1436     1.0  0.11759  0.50391  0.94789  1.0000
  C   C1437     1.0  0.13399  0.45734  0.95052  1.0000
  C   C1438     1.0  0.16950  0.50773  0.97237  1.0000
  C   C1439     1.0  0.17933  0.50854  0.88174  1.0000
  C   C1440     1.0  0.14991  0.52991  0.89452  1.0000
  C   C1441     1.0  0.06784  0.53641  0.99829  1.0000
  C   C1442     1.0  0.12935  0.53880  0.00880  1.0000
  C   C1443     1.0  0.07520  0.57062  0.06131  1.0000
  C   C1444     1.0  0.13771  0.54851  0.07302  1.0000
  C   C1445     1.0  0.15019  0.53414  0.06926  1.0000
  C   C1446     1.0  0.16283  0.53885  0.08002  1.0000
  C   C1447     1.0  0.16709  0.55106  0.95382  1.0000
  C   C1448     1.0  0.19362  0.55062  0.00415  1.0000
  C   C1449     1.0  0.10689  0.52817  0.16168  1.0000
  C   C1450     1.0  0.12915  0.56190  0.11206  1.0000
  C   C1451     1.0  0.12388  0.54319  0.16349  1.0000
  C   C1452     1.0  0.09507  0.55665  0.16063  1.0000
  C   C1453     1.0  0.14046  0.50209  0.12039  1.0000
  C   C1454     1.0  0.17565  0.54784  0.15045  1.0000
  C   C1455     1.0  0.18268  0.55863  0.10393  1.0000
  C   C1456     1.0  0.16412  0.58359  0.12172  1.0000
  C   C1457     1.0  0.06626  0.54943  0.21378  1.0000
  C   C1458     1.0  0.13207  0.50301  0.20930  1.0000
  C   C1459     1.0  0.09393  0.56340  0.26108  1.0000
  C   C1460     1.0  0.11020  0.56709  0.23007  1.0000
  C   C1461     1.0  0.14454  0.51476  0.24764  1.0000
  C   C1462     1.0  0.23117  0.55522  0.29845  1.0000
  C   C1463     1.0  0.16137  0.55121  0.19928  1.0000
  C   C1464     1.0  0.20297  0.54893  0.22284  1.0000
  C   C1465     1.0  0.09435  0.54221  0.32206  1.0000
  C   C1466     1.0  0.10714  0.54899  0.32333  1.0000
  C   C1467     1.0  0.08538  0.55295  0.33413  1.0000
  C   C1468     1.0  0.09495  0.54431  0.35051  1.0000
  C   C1469     1.0  0.12956  0.52761  0.35378  1.0000
  C   C1470     1.0  0.15502  0.53605  0.37545  1.0000
  C   C1471     1.0  0.16546  0.55233  0.29639  1.0000
  C   C1472     1.0  0.14196  0.56177  0.27211  1.0000
  C   C1473     1.0  0.14747  0.52527  0.42637  1.0000
  C   C1474     1.0  0.12042  0.55575  0.42760  1.0000
  C   C1475     1.0  0.12079  0.55614  0.46903  1.0000
  C   C1476     1.0  0.12162  0.56262  0.43811  1.0000
  C   C1477     1.0  0.17057  0.52569  0.44412  1.0000
  C   C1478     1.0  0.19165  0.53607  0.46613  1.0000
  C   C1479     1.0  0.17305  0.54716  0.39194  1.0000
  C   C1480     1.0  0.17600  0.54846  0.42085  1.0000
  C   C1481     1.0  0.06356  0.53090  0.48837  1.0000
  C   C1482     1.0  0.10767  0.51866  0.52797  1.0000
  C   C1483     1.0  0.11095  0.56995  0.53472  1.0000
  C   C1484     1.0  0.11288  0.56792  0.60109  1.0000
  C   C1485     1.0  0.13260  0.54740  0.57969  1.0000
  C   C1486     1.0  0.21807  0.55730  0.60298  1.0000
  C   C1487     1.0  0.15140  0.56353  0.52629  1.0000
  C   C1488     1.0  0.21520  0.56516  0.50070  1.0000
  C   C1489     1.0  0.11921  0.53008  0.57130  1.0000
  C   C1490     1.0  0.12429  0.54064  0.65712  1.0000
  C   C1491     1.0  0.08833  0.56298  0.63349  1.0000
  C   C1492     1.0  0.12348  0.57684  0.68040  1.0000
  C   C1493     1.0  0.15983  0.53122  0.66065  1.0000
  C   C1494     1.0  0.18494  0.54666  0.71013  1.0000
  C   C1495     1.0  0.11716  0.55633  0.60985  1.0000
  C   C1496     1.0  0.18343  0.57896  0.65557  1.0000
  C   C1497     1.0  0.06241  0.52010  0.71210  1.0000
  C   C1498     1.0  0.17077  0.53597  0.72807  1.0000
  C   C1499     1.0  0.09542  0.56809  0.71165  1.0000
  C   C1500     1.0  0.13917  0.57270  0.76079  1.0000
  C   C1501     1.0  0.18063  0.53220  0.68272  1.0000
  C   C1502     1.0  0.18191  0.55467  0.78311  1.0000
  C   C1503     1.0  0.12649  0.55918  0.71811  1.0000
  C   C1504     1.0  0.17666  0.56268  0.72268  1.0000
  C   C1505     1.0  0.10556  0.54018  0.80337  1.0000
  C   C1506     1.0  0.10663  0.52007  0.80823  1.0000
  C   C1507     1.0  0.11364  0.56177  0.83408  1.0000
  C   C1508     1.0  0.09230  0.58828  0.84862  1.0000
  C   C1509     1.0  0.13931  0.51967  0.85553  1.0000
  C   C1510     1.0  0.20188  0.55560  0.84688  1.0000
  C   C1511     1.0  0.15679  0.55989  0.79603  1.0000
  C   C1512     1.0  0.15620  0.56041  0.83507  1.0000
  C   C1513     1.0  0.10206  0.50856  0.92465  1.0000
  C   C1514     1.0  0.11362  0.55245  0.91364  1.0000
  C   C1515     1.0  0.08618  0.52424  0.92452  1.0000
  C   C1516     1.0  0.17510  0.58464  0.99356  1.0000
  C   C1517     1.0  0.14313  0.51416  0.97222  1.0000
  C   C1518     1.0  0.18372  0.53791  0.95928  1.0000
  C   C1519     1.0  0.10960  0.55313  0.88961  1.0000
  C   C1520     1.0  0.15636  0.54563  0.94779  1.0000
  C   C1521     1.0  0.10681  0.57510  0.96909  1.0000
  C   C1522     1.0  0.13890  0.58666  0.97607  1.0000
  C   C1523     1.0  0.10320  0.60834  0.02399  1.0000
  C   C1524     1.0  0.11466  0.63063  0.05288  1.0000
  C   C1525     1.0  0.11981  0.57750  0.04854  1.0000
  C   C1526     1.0  0.18939  0.59262  0.06139  1.0000
  C   C1527     1.0  0.09496  0.63123  0.99899  1.0000
  C   C1528     1.0  0.17624  0.63986  0.02881  1.0000
  C   C1529     1.0  0.09834  0.55739  0.08574  1.0000
  C   C1530     1.0  0.12639  0.60901  0.11394  1.0000
  C   C1531     1.0  0.06726  0.61173  0.14542  1.0000
  C   C1532     1.0  0.13878  0.64095  0.16384  1.0000
  C   C1533     1.0  0.19002  0.60001  0.13855  1.0000
  C   C1534     1.0  0.15315  0.59156  0.18839  1.0000
  C   C1535     1.0  0.13677  0.61772  0.09595  1.0000
  C   C1536     1.0  0.16314  0.64093  0.13412  1.0000
  C   C1537     1.0  0.09314  0.59694  0.24209  1.0000
  C   C1538     1.0  0.11534  0.59210  0.22002  1.0000
  C   C1539     1.0  0.07018  0.62139  0.27162  1.0000
  C   C1540     1.0  0.12042  0.62951  0.24507  1.0000
  C   C1541     1.0  0.17678  0.56824  0.24610  1.0000
  C   C1542     1.0  0.17325  0.60511  0.27485  1.0000
  C   C1543     1.0  0.13820  0.62113  0.17227  1.0000
  C   C1544     1.0  0.16338  0.62687  0.21099  1.0000
  C   C1545     1.0  0.10292  0.57480  0.30660  1.0000
  C   C1546     1.0  0.14024  0.60407  0.30597  1.0000
  C   C1547     1.0  0.09915  0.62477  0.34887  1.0000
  C   C1548     1.0  0.13521  0.03813  0.40788  1.0000
  C   C1549     1.0  0.18060  0.59734  0.32259  1.0000
  C   C1550     1.0  0.19722  0.61250  0.39697  1.0000
  C   C1551     1.0  0.18428  0.62059  0.30650  1.0000
  C   C1552     1.0  0.18060  0.63198  0.27356  1.0000
  C   C1553     1.0  0.08598  0.59113  0.38699  1.0000
  C   C1554     1.0  0.10190  0.59413  0.42719  1.0000
  C   C1555     1.0  0.08084  0.63633  0.43832  1.0000
  C   C1556     1.0  0.14418  0.63102  0.49084  1.0000
  C   C1557     1.0  0.13563  0.59957  0.44644  1.0000
  C   C1558     1.0  0.16789  0.61166  0.48864  1.0000
  C   C1559     1.0  0.13028  0.60110  0.44375  1.0000
  C   C1560     1.0  0.17313  0.61695  0.43431  1.0000
  C   C1561     1.0  0.10368  0.59649  0.50114  1.0000
  C   C1562     1.0  0.11763  0.60415  0.55534  1.0000
  C   C1563     1.0  0.09812  0.61280  0.55060  1.0000
  C   C1564     1.0  0.13024  0.62650  0.57584  1.0000
  C   C1565     1.0  0.13348  0.57440  0.54181  1.0000
  C   C1566     1.0  0.19755  0.61515  0.58653  1.0000
  C   C1567     1.0  0.14654  0.61560  0.46409  1.0000
  C   C1568     1.0  0.20044  0.62067  0.50427  1.0000
  C   C1569     1.0  0.09548  0.58794  0.59813  1.0000
  C   C1570     1.0  0.08588  0.61651  0.61621  1.0000
  C   C1571     1.0  0.08138  0.61559  0.67293  1.0000
  C   C1572     1.0  0.14983  0.63763  0.67462  1.0000
  C   C1573     1.0  0.16407  0.58253  0.65306  1.0000
  C   C1574     1.0  0.15457  0.62507  0.66151  1.0000
  C   C1575     1.0  0.14888  0.61130  0.61131  1.0000
  C   C1576     1.0  0.17564  0.61757  0.60291  1.0000
  C   C1577     1.0  0.09240  0.61236  0.74835  1.0000
  C   C1578     1.0  0.13212  0.59916  0.70661  1.0000
  C   C1579     1.0  0.09976  0.59390  0.72356  1.0000
  C   C1580     1.0  0.12470  0.64229  0.78205  1.0000
  C   C1581     1.0  0.13168  0.58585  0.73913  1.0000
  C   C1582     1.0  0.16235  0.60297  0.75128  1.0000
  C   C1583     1.0  0.15171  0.60972  0.69407  1.0000
  C   C1584     1.0  0.15282  0.64032  0.72158  1.0000
  C   C1585     1.0  0.12148  0.58300  0.78384  1.0000
  C   C1586     1.0  0.14947  0.58387  0.82561  1.0000
  C   C1587     1.0  0.08243  0.60422  0.87048  1.0000
  C   C1588     1.0  0.14328  0.63226  0.87441  1.0000
  C   C1589     1.0  0.12460  0.55781  0.83544  1.0000
  C   C1590     1.0  0.19144  0.61076  0.92302  1.0000
  C   C1591     1.0  0.14188  0.61313  0.79640  1.0000
  C   C1592     1.0  0.15969  0.64590  0.82416  1.0000
  C   C1593     1.0  0.09014  0.58320  0.91465  1.0000
  C   C1594     1.0  0.09477  0.60041  0.91547  1.0000
  C   C1595     1.0  0.12950  0.62038  0.93758  1.0000
  C   C1596     1.0  0.08257  0.64516  0.94940  1.0000
  C   C1597     1.0  0.15753  0.60669  0.93035  1.0000
  C   C1598     1.0  0.19801  0.57532  0.96932  1.0000
  C   C1599     1.0  0.14846  0.63225  0.92896  1.0000
  C   C1600     1.0  0.17767  0.62824  0.95138  1.0000
  C   C1601     1.0  0.19926  0.04531  0.04797  1.0000
  C   C1602     1.0  0.21749  0.04511  0.01222  1.0000
  C   C1603     1.0  0.18848  0.08128  0.03744  1.0000
  C   C1604     1.0  0.22840  0.08922  0.03518  1.0000
  C   C1605     1.0  0.29847  0.05123  0.05949  1.0000
  C   C1606     1.0  0.29721  0.05137  0.06556  1.0000
  C   C1607     1.0  0.25800  0.05330  0.98798  1.0000
  C   C1608     1.0  0.28716  0.09453  0.00861  1.0000
  C   C1609     1.0  0.20391  0.62830  0.12082  1.0000
  C   C1610     1.0  0.20276  0.05096  0.12581  1.0000
  C   C1611     1.0  0.20330  0.04712  0.13478  1.0000
  C   C1612     1.0  0.22591  0.07970  0.14995  1.0000
  C   C1613     1.0  0.23133  0.63676  0.17008  1.0000
  C   C1614     1.0  0.30647  0.64038  0.15964  1.0000
  C   C1615     1.0  0.22536  0.08134  0.08489  1.0000
  C   C1616     1.0  0.31488  0.07926  0.13370  1.0000
  C   C1617     1.0  0.21351  0.04284  0.19240  1.0000
  C   C1618     1.0  0.28100  0.05034  0.21305  1.0000
  C   C1619     1.0  0.20668  0.07410  0.27035  1.0000
  C   C1620     1.0  0.18807  0.07288  0.24803  1.0000
  C   C1621     1.0  0.27302  0.04843  0.26411  1.0000
  C   C1622     1.0  0.25080  0.05022  0.26174  1.0000
  C   C1623     1.0  0.21925  0.05333  0.21891  1.0000
  C   C1624     1.0  0.28017  0.09812  0.23628  1.0000
  C   C1625     1.0  0.23039  0.04647  0.29943  1.0000
  C   C1626     1.0  0.24439  0.05330  0.31567  1.0000
  C   C1627     1.0  0.21525  0.07951  0.31698  1.0000
  C   C1628     1.0  0.25471  0.08731  0.44401  1.0000
  C   C1629     1.0  0.23714  0.04376  0.35159  1.0000
  C   C1630     1.0  0.23643  0.05492  0.40042  1.0000
  C   C1631     1.0  0.23601  0.05535  0.28132  1.0000
  C   C1632     1.0  0.26764  0.07168  0.31481  1.0000
  C   C1633     1.0  0.22248  0.07723  0.38354  1.0000
  C   C1634     1.0  0.24718  0.05481  0.44714  1.0000
  C   C1635     1.0  0.21479  0.09146  0.47010  1.0000
  C   C1636     1.0  0.26845  0.07858  0.43444  1.0000
  C   C1637     1.0  0.24979  0.63599  0.45802  1.0000
  C   C1638     1.0  0.25767  0.03803  0.45868  1.0000
  C   C1639     1.0  0.24310  0.05626  0.42122  1.0000
  C   C1640     1.0  0.23504  0.10775  0.42633  1.0000
  C   C1641     1.0  0.22636  0.03631  0.43315  1.0000
  C   C1642     1.0  0.22396  0.07120  0.49935  1.0000
  C   C1643     1.0  0.18972  0.07877  0.53705  1.0000
  C   C1644     1.0  0.20991  0.06424  0.58070  1.0000
  C   C1645     1.0  0.25598  0.05216  0.56468  1.0000
  C   C1646     1.0  0.32165  0.04991  0.55429  1.0000
  C   C1647     1.0  0.23172  0.05304  0.48879  1.0000
  C   C1648     1.0  0.25000  0.09320  0.55838  1.0000
  C   C1649     1.0  0.22587  0.06788  0.62366  1.0000
  C   C1650     1.0  0.22175  0.05725  0.61121  1.0000
  C   C1651     1.0  0.22281  0.04936  0.68823  1.0000
  C   C1652     1.0  0.26860  0.05843  0.67613  1.0000
  C   C1653     1.0  0.24250  0.04674  0.64264  1.0000
  C   C1654     1.0  0.27041  0.04040  0.68009  1.0000
  C   C1655     1.0  0.21009  0.05866  0.61682  1.0000
  C   C1656     1.0  0.31819  0.05924  0.60845  1.0000
  C   C1657     1.0  0.19784  0.04606  0.70841  1.0000
  C   C1658     1.0  0.24330  0.04259  0.74084  1.0000
  C   C1659     1.0  0.19415  0.07770  0.77135  1.0000
  C   C1660     1.0  0.21652  0.08339  0.79324  1.0000
  C   C1661     1.0  0.24962  0.64531  0.75385  1.0000
  C   C1662     1.0  0.29039  0.06148  0.75213  1.0000
  C   C1663     1.0  0.26251  0.07046  0.69149  1.0000
  C   C1664     1.0  0.25089  0.09253  0.72096  1.0000
  C   C1665     1.0  0.22244  0.04656  0.79144  1.0000
  C   C1666     1.0  0.21027  0.06758  0.80766  1.0000
  C   C1667     1.0  0.20660  0.06581  0.85830  1.0000
  C   C1668     1.0  0.24654  0.09402  0.87416  1.0000
  C   C1669     1.0  0.27929  0.63186  0.86760  1.0000
  C   C1670     1.0  0.24895  0.64677  0.87564  1.0000
  C   C1671     1.0  0.25351  0.04149  0.81488  1.0000
  C   C1672     1.0  0.31528  0.09790  0.80508  1.0000
  C   C1673     1.0  0.17597  0.62403  0.88791  1.0000
  C   C1674     1.0  0.19631  0.07223  0.89699  1.0000
  C   C1675     1.0  0.22584  0.07117  0.97116  1.0000
  C   C1676     1.0  0.22367  0.07726  0.95644  1.0000
  C   C1677     1.0  0.19545  0.63821  0.93722  1.0000
  C   C1678     1.0  0.26703  0.04544  0.95572  1.0000
  C   C1679     1.0  0.25869  0.05403  0.90692  1.0000
  C   C1680     1.0  0.26399  0.06855  0.93455  1.0000
  C   C1681     1.0  0.19595  0.08953  0.99510  1.0000
  C   C1682     1.0  0.23567  0.11957  0.01773  1.0000
  C   C1683     1.0  0.17146  0.13106  0.04576  1.0000
  C   C1684     1.0  0.20421  0.13697  0.08420  1.0000
  C   C1685     1.0  0.25268  0.12035  0.06395  1.0000
  C   C1686     1.0  0.25076  0.07688  0.09371  1.0000
  C   C1687     1.0  0.29215  0.11210  0.98986  1.0000
  C   C1688     1.0  0.25394  0.14882  0.97844  1.0000
  C   C1689     1.0  0.20126  0.08302  0.08345  1.0000
  C   C1690     1.0  0.21948  0.09722  0.12856  1.0000
  C   C1691     1.0  0.21528  0.12360  0.11795  1.0000
  C   C1692     1.0  0.24737  0.13184  0.20388  1.0000
  C   C1693     1.0  0.22432  0.10998  0.15563  1.0000
  C   C1694     1.0  0.22689  0.09511  0.20932  1.0000
  C   C1695     1.0  0.30692  0.13072  0.09057  1.0000
  C   C1696     1.0  0.23866  0.12466  0.11068  1.0000
  C   C1697     1.0  0.18682  0.07873  0.19779  1.0000
  C   C1698     1.0  0.22805  0.08384  0.21872  1.0000
  C   C1699     1.0  0.18201  0.11616  0.23372  1.0000
  C   C1700     1.0  0.23205  0.13998  0.28542  1.0000
  C   C1701     1.0  0.27234  0.07855  0.24957  1.0000
  C   C1702     1.0  0.24871  0.09100  0.25933  1.0000
  C   C1703     1.0  0.23319  0.10706  0.19853  1.0000
  C   C1704     1.0  0.28505  0.13642  0.22624  1.0000
  C   C1705     1.0  0.20232  0.10294  0.29942  1.0000
  C   C1706     1.0  0.19224  0.10608  0.34823  1.0000
  C   C1707     1.0  0.20470  0.11614  0.38900  1.0000
  C   C1708     1.0  0.24138  0.14684  0.39711  1.0000
  C   C1709     1.0  0.25276  0.10999  0.34882  1.0000
  C   C1710     1.0  0.30731  0.11224  0.34075  1.0000
  C   C1711     1.0  0.23309  0.13635  0.31103  1.0000
  C   C1712     1.0  0.30346  0.10617  0.33715  1.0000
  C   C1713     1.0  0.17978  0.08611  0.39240  1.0000
  C   C1714     1.0  0.22497  0.09511  0.41935  1.0000
  C   C1715     1.0  0.19474  0.13582  0.43572  1.0000
  C   C1716     1.0  0.23684  0.13043  0.45303  1.0000
  C   C1717     1.0  0.24085  0.06385  0.46097  1.0000
  C   C1718     1.0  0.26687  0.10665  0.43063  1.0000
  C   C1719     1.0  0.22962  0.14868  0.41478  1.0000
  C   C1720     1.0  0.25998  0.14319  0.40745  1.0000
  C   C1721     1.0  0.18603  0.08611  0.51175  1.0000
  C   C1722     1.0  0.24104  0.11990  0.54821  1.0000
  C   C1723     1.0  0.19684  0.13287  0.52304  1.0000
  C   C1724     1.0  0.21029  0.15064  0.52819  1.0000
  C   C1725     1.0  0.28311  0.09828  0.57317  1.0000
  C   C1726     1.0  0.27667  0.11245  0.57617  1.0000
  C   C1727     1.0  0.25226  0.12949  0.49016  1.0000
  C   C1728     1.0  0.27206  0.15413  0.53254  1.0000
  C   C1729     1.0  0.20962  0.11434  0.61548  1.0000
  C   C1730     1.0  0.25702  0.09715  0.58005  1.0000
  C   C1731     1.0  0.17948  0.10719  0.63852  1.0000
  C   C1732     1.0  0.23917  0.15012  0.65850  1.0000
  C   C1733     1.0  0.25440  0.09847  0.64518  1.0000
  C   C1734     1.0  0.24596  0.11962  0.67358  1.0000
  C   C1735     1.0  0.27669  0.11759  0.59097  1.0000
  C   C1736     1.0  0.27777  0.14661  0.66503  1.0000
  C   C1737     1.0  0.19433  0.11514  0.71182  1.0000
  C   C1738     1.0  0.21768  0.09361  0.74403  1.0000
  C   C1739     1.0  0.20666  0.13152  0.74811  1.0000
  C   C1740     1.0  0.23072  0.13482  0.77224  1.0000
  C   C1741     1.0  0.24102  0.10616  0.71580  1.0000
  C   C1742     1.0  0.28501  0.10946  0.79093  1.0000
  C   C1743     1.0  0.22987  0.11824  0.72738  1.0000
  C   C1744     1.0  0.25001  0.16341  0.78106  1.0000
  C   C1745     1.0  0.20872  0.08491  0.79968  1.0000
  C   C1746     1.0  0.23141  0.09054  0.83334  1.0000
  C   C1747     1.0  0.20795  0.12122  0.85774  1.0000
  C   C1748     1.0  0.21976  0.14760  0.87637  1.0000
  C   C1749     1.0  0.23336  0.07025  0.83899  1.0000
  C   C1750     1.0  0.28130  0.09561  0.86147  1.0000
  C   C1751     1.0  0.24471  0.13319  0.77557  1.0000
  C   C1752     1.0  0.28831  0.14429  0.81582  1.0000
  C   C1753     1.0  0.20514  0.08064  0.90334  1.0000
  C   C1754     1.0  0.20845  0.11187  0.91128  1.0000
  C   C1755     1.0  0.19735  0.13425  0.97979  1.0000
  C   C1756     1.0  0.19215  0.15027  0.99974  1.0000
  C   C1757     1.0  0.23452  0.10084  0.94076  1.0000
  C   C1758     1.0  0.31003  0.11449  0.02366  1.0000
  C   C1759     1.0  0.25213  0.10203  0.90069  1.0000
  C   C1760     1.0  0.24531  0.11948  0.95533  1.0000
  C   C1761     1.0  0.18892  0.14511  0.01850  1.0000
  C   C1762     1.0  0.23443  0.19094  0.02188  1.0000
  C   C1763     1.0  0.20943  0.19182  0.02630  1.0000
  C   C1764     1.0  0.19837  0.20799  0.03424  1.0000
  C   C1765     1.0  0.23453  0.15324  0.07182  1.0000
  C   C1766     1.0  0.24873  0.16393  0.12155  1.0000
  C   C1767     1.0  0.23619  0.16555  0.99604  1.0000
  C   C1768     1.0  0.27629  0.20720  0.01371  1.0000
  C   C1769     1.0  0.22904  0.16585  0.09865  1.0000
  C   C1770     1.0  0.20129  0.16930  0.09812  1.0000
  C   C1771     1.0  0.20751  0.20364  0.16379  1.0000
  C   C1772     1.0  0.21643  0.19903  0.15027  1.0000
  C   C1773     1.0  0.23724  0.16918  0.16295  1.0000
  C   C1774     1.0  0.26532  0.15897  0.15486  1.0000
  C   C1775     1.0  0.29631  0.20961  0.09861  1.0000
  C   C1776     1.0  0.27607  0.17280  0.15410  1.0000
  C   C1777     1.0  0.18264  0.16821  0.20919  1.0000
  C   C1778     1.0  0.23570  0.17372  0.21401  1.0000
  C   C1779     1.0  0.20191  0.20700  0.22936  1.0000
  C   C1780     1.0  0.23348  0.19262  0.24514  1.0000
  C   C1781     1.0  0.26263  0.16131  0.25761  1.0000
  C   C1782     1.0  0.31403  0.16518  0.27366  1.0000
  C   C1783     1.0  0.25968  0.19436  0.21748  1.0000
  C   C1784     1.0  0.31296  0.18350  0.24751  1.0000
  C   C1785     1.0  0.23581  0.18679  0.29874  1.0000
  C   C1786     1.0  0.17707  0.14941  0.33742  1.0000
  C   C1787     1.0  0.17515  0.16300  0.34194  1.0000
  C   C1788     1.0  0.23715  0.20927  0.39083  1.0000
  C   C1789     1.0  0.22756  0.15140  0.36591  1.0000
  C   C1790     1.0  0.26176  0.18140  0.36143  1.0000
  C   C1791     1.0  0.23701  0.19347  0.29849  1.0000
  C   C1792     1.0  0.23206  0.22411  0.35451  1.0000
  C   C1793     1.0  0.20411  0.15811  0.41207  1.0000
  C   C1794     1.0  0.23706  0.18687  0.41875  1.0000
  C   C1795     1.0  0.21669  0.20006  0.44026  1.0000
  C   C1796     1.0  0.20727  0.23402  0.45167  1.0000
  C   C1797     1.0  0.29030  0.17109  0.48278  1.0000
  C   C1798     1.0  0.27984  0.17264  0.49332  1.0000
  C   C1799     1.0  0.23315  0.18277  0.41839  1.0000
  C   C1800     1.0  0.32438  0.21032  0.43562  1.0000
  C   C1801     1.0  0.21534  0.18396  0.48357  1.0000
  C   C1802     1.0  0.20579  0.17489  0.49602  1.0000
  C   C1803     1.0  0.26755  0.20187  0.57166  1.0000
  C   C1804     1.0  0.23350  0.20712  0.56349  1.0000
  C   C1805     1.0  0.27400  0.15214  0.54288  1.0000
  C   C1806     1.0  0.28426  0.17709  0.60540  1.0000
  C   C1807     1.0  0.26304  0.18478  0.45272  1.0000
  C   C1808     1.0  0.30284  0.19275  0.54165  1.0000
  C   C1809     1.0  0.22919  0.14553  0.60805  1.0000
  C   C1810     1.0  0.17689  0.17243  0.64072  1.0000
  C   C1811     1.0  0.23829  0.19635  0.66082  1.0000
  C   C1812     1.0  0.20989  0.20527  0.66848  1.0000
  C   C1813     1.0  0.26167  0.14993  0.68095  1.0000
  C   C1814     1.0  0.26334  0.16513  0.66080  1.0000
  C   C1815     1.0  0.25499  0.19590  0.58942  1.0000
  C   C1816     1.0  0.26450  0.21124  0.63093  1.0000
  C   C1817     1.0  0.16792  0.13221  0.67402  1.0000
  C   C1818     1.0  0.21301  0.19049  0.73934  1.0000
  C   C1819     1.0  0.23170  0.18016  0.75701  1.0000
  C   C1820     1.0  0.19235  0.21540  0.77384  1.0000
  C   C1821     1.0  0.26898  0.15855  0.77005  1.0000
  C   C1822     1.0  0.31184  0.17853  0.80841  1.0000
  C   C1823     1.0  0.21217  0.18736  0.72138  1.0000
  C   C1824     1.0  0.28591  0.19540  0.70034  1.0000
  C   C1825     1.0  0.18472  0.15212  0.78146  1.0000
  C   C1826     1.0  0.20661  0.17533  0.78974  1.0000
  C   C1827     1.0  0.18183  0.18020  0.87256  1.0000
  C   C1828     1.0  0.26915  0.18475  0.93513  1.0000
  C   C1829     1.0  0.26859  0.14760  0.86328  1.0000
  C   C1830     1.0  0.29104  0.17167  0.85086  1.0000
  C   C1831     1.0  0.23984  0.17887  0.81720  1.0000
  C   C1832     1.0  0.29204  0.21071  0.77842  1.0000
  C   C1833     1.0  0.21203  0.14114  0.93475  1.0000
  C   C1834     1.0  0.21112  0.13836  0.93438  1.0000
  C   C1835     1.0  0.24422  0.19011  0.93264  1.0000
  C   C1836     1.0  0.23691  0.21415  0.98401  1.0000
  C   C1837     1.0  0.26884  0.16514  0.97828  1.0000
  C   C1838     1.0  0.28359  0.14686  0.00861  1.0000
  C   C1839     1.0  0.24385  0.19722  0.91290  1.0000
  C   C1840     1.0  0.26905  0.21616  0.88790  1.0000
  C   C1841     1.0  0.20819  0.20639  0.00173  1.0000
  C   C1842     1.0  0.25886  0.24243  0.02964  1.0000
  C   C1843     1.0  0.17386  0.25280  0.02249  1.0000
  C   C1844     1.0  0.20558  0.26149  0.06515  1.0000
  C   C1845     1.0  0.25097  0.19894  0.03152  1.0000
  C   C1846     1.0  0.24301  0.24258  0.08766  1.0000
  C   C1847     1.0  0.26917  0.23433  0.02320  1.0000
  C   C1848     1.0  0.26706  0.24535  0.03441  1.0000
  C   C1849     1.0  0.18768  0.23870  0.11690  1.0000
  C   C1850     1.0  0.20643  0.23829  0.09522  1.0000
  C   C1851     1.0  0.18896  0.24068  0.18804  1.0000
  C   C1852     1.0  0.24012  0.25909  0.17070  1.0000
  C   C1853     1.0  0.26450  0.21191  0.16806  1.0000
  C   C1854     1.0  0.29134  0.23164  0.18456  1.0000
  C   C1855     1.0  0.25006  0.27259  0.10243  1.0000
  C   C1856     1.0  0.23000  0.28368  0.13575  1.0000
  C   C1857     1.0  0.23933  0.23122  0.18892  1.0000
  C   C1858     1.0  0.24159  0.22552  0.21752  1.0000
  C   C1859     1.0  0.20575  0.26239  0.26260  1.0000
  C   C1860     1.0  0.26740  0.27671  0.28441  1.0000
  C   C1861     1.0  0.29025  0.19519  0.25584  1.0000
  C   C1862     1.0  0.24898  0.24594  0.26370  1.0000
  C   C1863     1.0  0.26530  0.24172  0.17759  1.0000
  C   C1864     1.0  0.35293  0.31213  0.23604  1.0000
  C   C1865     1.0  0.19429  0.20603  0.32873  1.0000
  C   C1866     1.0  0.21119  0.24708  0.30576  1.0000
  C   C1867     1.0  0.19899  0.22373  0.37156  1.0000
  C   C1868     1.0  0.18455  0.26484  0.36109  1.0000
  C   C1869     1.0  0.28360  0.21818  0.32739  1.0000
  C   C1870     1.0  0.31397  0.24608  0.39040  1.0000
  C   C1871     1.0  0.21990  0.26621  0.26182  1.0000
  C   C1872     1.0  0.27423  0.24368  0.35065  1.0000
  C   C1873     1.0  0.18792  0.19322  0.39418  1.0000
  C   C1874     1.0  0.25802  0.23632  0.38816  1.0000
  C   C1875     1.0  0.18671  0.26638  0.42985  1.0000
  C   C1876     1.0  0.21024  0.24735  0.47529  1.0000
  C   C1877     1.0  0.24148  0.20823  0.46964  1.0000
  C   C1878     1.0  0.27093  0.23482  0.47544  1.0000
  C   C1879     1.0  0.25046  0.25684  0.38137  1.0000
  C   C1880     1.0  0.25922  0.28058  0.40408  1.0000
  C   C1881     1.0  0.21915  0.22022  0.49732  1.0000
  C   C1882     1.0  0.24483  0.24690  0.52213  1.0000
  C   C1883     1.0  0.18029  0.25707  0.54520  1.0000
  C   C1884     1.0  0.19041  0.26460  0.57094  1.0000
  C   C1885     1.0  0.25252  0.22488  0.58545  1.0000
  C   C1886     1.0  0.26110  0.26214  0.53746  1.0000
  C   C1887     1.0  0.29370  0.26310  0.51564  1.0000
  C   C1888     1.0  0.27257  0.24893  0.50943  1.0000
  C   C1889     1.0  0.15635  0.23710  0.61497  1.0000
  C   C1890     1.0  0.21016  0.24151  0.61720  1.0000
  C   C1891     1.0  0.18600  0.25199  0.61391  1.0000
  C   C1892     1.0  0.22132  0.28368  0.65612  1.0000
  C   C1893     1.0  0.22114  0.21316  0.66046  1.0000
  C   C1894     1.0  0.27405  0.24287  0.66622  1.0000
  C   C1895     1.0  0.26842  0.24470  0.58925  1.0000
  C   C1896     1.0  0.27023  0.29094  0.62590  1.0000
  C   C1897     1.0  0.21092  0.22312  0.68123  1.0000
  C   C1898     1.0  0.18359  0.22273  0.72294  1.0000
  C   C1899     1.0  0.18849  0.26477  0.74675  1.0000
  C   C1900     1.0  0.24830  0.26604  0.77939  1.0000
  C   C1901     1.0  0.22601  0.22950  0.76458  1.0000
  C   C1902     1.0  0.26039  0.27199  0.78212  1.0000
  C   C1903     1.0  0.29745  0.24526  0.67225  1.0000
  C   C1904     1.0  0.27227  0.26657  0.76055  1.0000
  C   C1905     1.0  0.19771  0.21276  0.80786  1.0000
  C   C1906     1.0  0.25727  0.23123  0.81977  1.0000
  C   C1907     1.0  0.18244  0.23935  0.82856  1.0000
  C   C1908     1.0  0.16411  0.29288  0.85288  1.0000
  C   C1909     1.0  0.21569  0.21637  0.81079  1.0000
  C   C1910     1.0  0.27082  0.23458  0.88924  1.0000
  C   C1911     1.0  0.24028  0.23841  0.79048  1.0000
  C   C1912     1.0  0.28511  0.26702  0.82068  1.0000
  C   C1913     1.0  0.20346  0.21491  0.92242  1.0000
  C   C1914     1.0  0.23105  0.20830  0.91584  1.0000
  C   C1915     1.0  0.14939  0.25168  0.90842  1.0000
  C   C1916     1.0  0.22240  0.25155  0.01790  1.0000
  C   C1917     1.0  0.27435  0.21589  0.92035  1.0000
  C   C1918     1.0  0.30833  0.24262  0.98799  1.0000
  C   C1919     1.0  0.22623  0.24683  0.90249  1.0000
  C   C1920     1.0  0.25156  0.26409  0.91513  1.0000
  C   C1921     1.0  0.21667  0.27285  0.98823  1.0000
  C   C1922     1.0  0.19476  0.28908  0.03156  1.0000
  C   C1923     1.0  0.23272  0.29058  0.06208  1.0000
  C   C1924     1.0  0.23084  0.30092  0.08689  1.0000
  C   C1925     1.0  0.26231  0.29331  0.05781  1.0000
  C   C1926     1.0  0.25450  0.29553  0.07747  1.0000
  C   C1927     1.0  0.27072  0.31033  0.97527  1.0000
  C   C1928     1.0  0.26803  0.32415  0.02261  1.0000
  C   C1929     1.0  0.18482  0.28701  0.08229  1.0000
  C   C1930     1.0  0.23017  0.29971  0.15704  1.0000
  C   C1931     1.0  0.19233  0.31910  0.17571  1.0000
  C   C1932     1.0  0.25881  0.33413  0.16167  1.0000
  C   C1933     1.0  0.25716  0.26239  0.16511  1.0000
  C   C1934     1.0  0.27322  0.28362  0.17378  1.0000
  C   C1935     1.0  0.27103  0.30396  0.12052  1.0000
  C   C1936     1.0  0.27426  0.30984  0.13332  1.0000
  C   C1937     1.0  0.21118  0.25316  0.18827  1.0000
  C   C1938     1.0  0.23569  0.28679  0.22347  1.0000
  C   C1939     1.0  0.18700  0.30778  0.22283  1.0000
  C   C1940     1.0  0.26434  0.29800  0.30371  1.0000
  C   C1941     1.0  0.24717  0.26907  0.25178  1.0000
  C   C1942     1.0  0.28358  0.29068  0.28995  1.0000
  C   C1943     1.0  0.25985  0.30154  0.16763  1.0000
  C   C1944     1.0  0.25846  0.33235  0.19224  1.0000
  C   C1945     1.0  0.22998  0.29167  0.30647  1.0000
  C   C1946     1.0  0.24083  0.31202  0.29858  1.0000
  C   C1947     1.0  0.18550  0.34341  0.37015  1.0000
  C   C1948     1.0  0.20661  0.34612  0.39598  1.0000
  C   C1949     1.0  0.25062  0.29097  0.34252  1.0000
  C   C1950     1.0  0.30200  0.29516  0.35229  1.0000
  C   C1951     1.0  0.21630  0.28644  0.32185  1.0000
  C   C1952     1.0  0.29568  0.32817  0.35065  1.0000
  C   C1953     1.0  0.19299  0.30046  0.42475  1.0000
  C   C1954     1.0  0.24989  0.29478  0.42263  1.0000
  C   C1955     1.0  0.21765  0.29140  0.43909  1.0000
  C   C1956     1.0  0.23932  0.34818  0.46854  1.0000
  C   C1957     1.0  0.30929  0.26935  0.43685  1.0000
  C   C1958     1.0  0.26752  0.28832  0.49432  1.0000
  C   C1959     1.0  0.21646  0.32042  0.35849  1.0000
  C   C1960     1.0  0.30452  0.31164  0.43018  1.0000
  C   C1961     1.0  0.18907  0.28389  0.49668  1.0000
  C   C1962     1.0  0.25216  0.29439  0.51972  1.0000
  C   C1963     1.0  0.21643  0.30015  0.54736  1.0000
  C   C1964     1.0  0.26467  0.29858  0.58944  1.0000
  C   C1965     1.0  0.22718  0.25420  0.56690  1.0000
  C   C1966     1.0  0.32057  0.28910  0.57003  1.0000
  C   C1967     1.0  0.24951  0.31747  0.48910  1.0000
  C   C1968     1.0  0.26995  0.32781  0.50482  1.0000
  C   C1969     1.0  0.23686  0.29690  0.62539  1.0000
  C   C1970     1.0  0.19556  0.29271  0.65682  1.0000
  C   C1971     1.0  0.16638  0.32573  0.62782  1.0000
  C   C1972     1.0  0.26100  0.34151  0.65618  1.0000
  C   C1973     1.0  0.26240  0.25710  0.69614  1.0000
  C   C1974     1.0  0.23153  0.31390  0.66851  1.0000
  C   C1975     1.0  0.24222  0.29685  0.61158  1.0000
  C   C1976     1.0  0.26813  0.30565  0.64175  1.0000
  C   C1977     1.0  0.20762  0.27016  0.70133  1.0000
  C   C1978     1.0  0.22396  0.30813  0.69960  1.0000
  C   C1979     1.0  0.18761  0.32264  0.75568  1.0000
  C   C1980     1.0  0.25454  0.31389  0.72649  1.0000
  C   C1981     1.0  0.23173  0.27877  0.74266  1.0000
  C   C1982     1.0  0.27791  0.30427  0.75921  1.0000
  C   C1983     1.0  0.25395  0.33088  0.69370  1.0000
  C   C1984     1.0  0.29766  0.33580  0.71276  1.0000
  C   C1985     1.0  0.20163  0.27779  0.78133  1.0000
  C   C1986     1.0  0.20504  0.28279  0.80647  1.0000
  C   C1987     1.0  0.18640  0.29698  0.81781  1.0000
  C   C1988     1.0  0.18939  0.33884  0.84352  1.0000
  C   C1989     1.0  0.29194  0.27646  0.85608  1.0000
  C   C1990     1.0  0.31690  0.30523  0.90379  1.0000
  C   C1991     1.0  0.24324  0.31904  0.80913  1.0000
  C   C1992     1.0  0.26483  0.32847  0.81994  1.0000
  C   C1993     1.0  0.19650  0.27503  0.88336  1.0000
  C   C1994     1.0  0.22715  0.29498  0.90731  1.0000
  C   C1995     1.0  0.18990  0.32214  0.95206  1.0000
  C   C1996     1.0  0.20683  0.32526  0.99060  1.0000
  C   C1997     1.0  0.27400  0.26684  0.96690  1.0000
  C   C1998     1.0  0.27236  0.29337  0.97089  1.0000
  C   C1999     1.0  0.27717  0.30225  0.91508  1.0000
  C   C2000     1.0  0.26957  0.32578  0.92948  1.0000
  C   C2001     1.0  0.21429  0.29316  0.97182  1.0000
  C   C2002     1.0  0.24244  0.35571  0.97186  1.0000
  C   C2003     1.0  0.20999  0.36165  0.04604  1.0000
  C   C2004     1.0  0.23760  0.37022  0.09078  1.0000
  C   C2005     1.0  0.24184  0.34418  0.05863  1.0000
  C   C2006     1.0  0.20645  0.36197  0.06413  1.0000
  C   C2007     1.0  0.27848  0.38665  0.00483  1.0000
  C   C2008     1.0  0.26576  0.38306  0.07225  1.0000
  C   C2009     1.0  0.17440  0.36101  0.08922  1.0000
  C   C2010     1.0  0.25377  0.35551  0.15838  1.0000
  C   C2011     1.0  0.17506  0.35762  0.17216  1.0000
  C   C2012     1.0  0.23593  0.37728  0.19512  1.0000
  C   C2013     1.0  0.24940  0.36353  0.14114  1.0000
  C   C2014     1.0  0.27632  0.34778  0.14716  1.0000
  C   C2015     1.0  0.25120  0.36847  0.11001  1.0000
  C   C2016     1.0  0.30312  0.39385  0.10423  1.0000
  C   C2017     1.0  0.21409  0.34464  0.20536  1.0000
  C   C2018     1.0  0.23500  0.34253  0.27549  1.0000
  C   C2019     1.0  0.21506  0.35645  0.27271  1.0000
  C   C2020     1.0  0.21018  0.36321  0.23454  1.0000
  C   C2021     1.0  0.24236  0.35839  0.26094  1.0000
  C   C2022     1.0  0.30857  0.35168  0.25054  1.0000
  C   C2023     1.0  0.20750  0.39747  0.18243  1.0000
  C   C2024     1.0  0.26539  0.35584  0.21399  1.0000
  C   C2025     1.0  0.19254  0.35570  0.30381  1.0000
  C   C2026     1.0  0.20916  0.37628  0.28779  1.0000
  C   C2027     1.0  0.18158  0.36333  0.35417  1.0000
  C   C2028     1.0  0.21261  0.41591  0.37070  1.0000
  C   C2029     1.0  0.26889  0.33546  0.33545  1.0000
  C   C2030     1.0  0.31264  0.36003  0.39056  1.0000
  C   C2031     1.0  0.24803  0.37860  0.28670  1.0000
  C   C2032     1.0  0.23500  0.37825  0.33296  1.0000
  C   C2033     1.0  0.15557  0.35461  0.38866  1.0000
  C   C2034     1.0  0.23512  0.34369  0.42014  1.0000
  C   C2035     1.0  0.22226  0.36789  0.44850  1.0000
  C   C2036     1.0  0.22080  0.35993  0.49302  1.0000
  C   C2037     1.0  0.24174  0.37608  0.46646  1.0000
  C   C2038     1.0  0.26000  0.36928  0.46887  1.0000
  C   C2039     1.0  0.25197  0.38316  0.40669  1.0000
  C   C2040     1.0  0.27248  0.37184  0.45716  1.0000
  C   C2041     1.0  0.20881  0.32880  0.49689  1.0000
  C   C2042     1.0  0.22036  0.36991  0.53848  1.0000
  C   C2043     1.0  0.18904  0.35596  0.55572  1.0000
  C   C2044     1.0  0.24505  0.39669  0.54918  1.0000
  C   C2045     1.0  0.24101  0.33661  0.55182  1.0000
  C   C2046     1.0  0.23793  0.35843  0.54491  1.0000
  C   C2047     1.0  0.25531  0.39782  0.52177  1.0000
  C   C2048     1.0  0.26557  0.37028  0.51054  1.0000
  C   C2049     1.0  0.20203  0.36206  0.54668  1.0000
  C   C2050     1.0  0.21083  0.35072  0.64093  1.0000
  C   C2051     1.0  0.19752  0.35468  0.66645  1.0000
  C   C2052     1.0  0.28205  0.38801  0.67051  1.0000
  C   C2053     1.0  0.25137  0.33071  0.64486  1.0000
  C   C2054     1.0  0.28171  0.36966  0.67840  1.0000
  C   C2055     1.0  0.20136  0.35082  0.60163  1.0000
  C   C2056     1.0  0.27784  0.39609  0.64961  1.0000
  C   C2057     1.0  0.18313  0.31186  0.69189  1.0000
  C   C2058     1.0  0.23253  0.37712  0.74221  1.0000
  C   C2059     1.0  0.22528  0.36662  0.72290  1.0000
  C   C2060     1.0  0.22959  0.38335  0.72392  1.0000
  C   C2061     1.0  0.26795  0.32718  0.76414  1.0000
  C   C2062     1.0  0.28869  0.35686  0.76674  1.0000
  C   C2063     1.0  0.26924  0.36401  0.70691  1.0000
  C   C2064     1.0  0.26627  0.37955  0.70225  1.0000
  C   C2065     1.0  0.21367  0.32394  0.84189  1.0000
  C   C2066     1.0  0.22053  0.34673  0.78519  1.0000
  C   C2067     1.0  0.22139  0.38912  0.85649  1.0000
  C   C2068     1.0  0.22789  0.37736  0.86354  1.0000
  C   C2069     1.0  0.23825  0.33270  0.86048  1.0000
  C   C2070     1.0  0.24089  0.36251  0.88664  1.0000
  C   C2071     1.0  0.23494  0.37863  0.79022  1.0000
  C   C2072     1.0  0.25112  0.38113  0.82003  1.0000
  C   C2073     1.0  0.18813  0.34399  0.92075  1.0000
  C   C2074     1.0  0.25090  0.36440  0.90648  1.0000
  C   C2075     1.0  0.19300  0.37977  0.94294  1.0000
  C   C2076     1.0  0.22571  0.35285  0.94810  1.0000
  C   C2077     1.0  0.26446  0.33598  0.98182  1.0000
  C   C2078     1.0  0.29295  0.35624  0.97501  1.0000
  C   C2079     1.0  0.27507  0.37280  0.88253  1.0000
  C   C2080     1.0  0.29877  0.39772  0.92783  1.0000
  C   C2081     1.0  0.20117  0.40682  0.97663  1.0000
  C   C2082     1.0  0.22443  0.41086  0.01745  1.0000
  C   C2083     1.0  0.21845  0.41935  0.08717  1.0000
  C   C2084     1.0  0.24453  0.43895  0.10822  1.0000
  C   C2085     1.0  0.22905  0.40710  0.04303  1.0000
  C   C2086     1.0  0.31121  0.42345  0.09410  1.0000
  C   C2087     1.0  0.25194  0.44216  0.01195  1.0000
  C   C2088     1.0  0.27903  0.44553  0.01219  1.0000
  C   C2089     1.0  0.18233  0.40435  0.06364  1.0000
  C   C2090     1.0  0.24367  0.41407  0.11980  1.0000
  C   C2091     1.0  0.23437  0.43656  0.14442  1.0000
  C   C2092     1.0  0.21848  0.46659  0.21945  1.0000
  C   C2093     1.0  0.25753  0.40629  0.14662  1.0000
  C   C2094     1.0  0.27919  0.40916  0.19325  1.0000
  C   C2095     1.0  0.21083  0.43399  0.11086  1.0000
  C   C2096     1.0  0.27829  0.46064  0.14611  1.0000
  C   C2097     1.0  0.16062  0.38390  0.20165  1.0000
  C   C2098     1.0  0.18435  0.40701  0.20061  1.0000
  C   C2099     1.0  0.21888  0.41740  0.25916  1.0000
  C   C2100     1.0  0.24354  0.43005  0.26161  1.0000
  C   C2101     1.0  0.22526  0.39148  0.24063  1.0000
  C   C2102     1.0  0.30221  0.41308  0.28701  1.0000
  C   C2103     1.0  0.25717  0.43580  0.19978  1.0000
  C   C2104     1.0  0.27228  0.45784  0.20851  1.0000
  C   C2105     1.0  0.18473  0.39422  0.28165  1.0000
  C   C2106     1.0  0.25465  0.40823  0.32407  1.0000
  C   C2107     1.0  0.18199  0.43080  0.35474  1.0000
  C   C2108     1.0  0.23979  0.43619  0.36050  1.0000
  C   C2109     1.0  0.25106  0.38864  0.34657  1.0000
  C   C2110     1.0  0.27155  0.44081  0.35809  1.0000
  C   C2111     1.0  0.23862  0.41891  0.31320  1.0000
  C   C2112     1.0  0.24460  0.42995  0.31963  1.0000
  C   C2113     1.0  0.19272  0.42076  0.38468  1.0000
  C   C2114     1.0  0.21708  0.42701  0.41511  1.0000
  C   C2115     1.0  0.18638  0.43189  0.48718  1.0000
  C   C2116     1.0  0.21444  0.44857  0.47357  1.0000
  C   C2117     1.0  0.27037  0.38624  0.47386  1.0000
  C   C2118     1.0  0.27213  0.40824  0.48515  1.0000
  C   C2119     1.0  0.23755  0.42636  0.37275  1.0000
  C   C2120     1.0  0.28352  0.45849  0.41304  1.0000
  C   C2121     1.0  0.16158  0.39863  0.50867  1.0000
  C   C2122     1.0  0.24559  0.42840  0.51356  1.0000
  C   C2123     1.0  0.16839  0.45614  0.55529  1.0000
  C   C2124     1.0  0.21789  0.44133  0.58733  1.0000
  C   C2125     1.0  0.27110  0.39649  0.54836  1.0000
  C   C2126     1.0  0.29336  0.42673  0.61754  1.0000
  C   C2127     1.0  0.22784  0.44923  0.50187  1.0000
  C   C2128     1.0  0.23232  0.46590  0.51634  1.0000
  C   C2129     1.0  0.23604  0.40791  0.60525  1.0000
  C   C2130     1.0  0.24977  0.41781  0.66263  1.0000
  C   C2131     1.0  0.21390  0.40653  0.64973  1.0000
  C   C2132     1.0  0.23356  0.45065  0.70090  1.0000
  C   C2133     1.0  0.26164  0.38099  0.64281  1.0000
  C   C2134     1.0  0.26796  0.43507  0.66535  1.0000
  C   C2135     1.0  0.25100  0.41757  0.60871  1.0000
  C   C2136     1.0  0.30191  0.44991  0.62346  1.0000
  C   C2137     1.0  0.24851  0.41589  0.70235  1.0000
  C   C2138     1.0  0.23365  0.40163  0.71903  1.0000
  C   C2139     1.0  0.22259  0.43985  0.74077  1.0000
  C   C2140     1.0  0.23367  0.44247  0.74612  1.0000
  C   C2141     1.0  0.25118  0.40902  0.70414  1.0000
  C   C2142     1.0  0.27747  0.43916  0.79035  1.0000
  C   C2143     1.0  0.24347  0.44636  0.67792  1.0000
  C   C2144     1.0  0.23169  0.47051  0.67300  1.0000
  C   C2145     1.0  0.18318  0.40145  0.80184  1.0000
  C   C2146     1.0  0.23224  0.45531  0.84145  1.0000
  C   C2147     1.0  0.21638  0.43303  0.83133  1.0000
  C   C2148     1.0  0.25490  0.43756  0.89082  1.0000
  C   C2149     1.0  0.27628  0.37974  0.83119  1.0000
  C   C2150     1.0  0.27624  0.41975  0.85917  1.0000
  C   C2151     1.0  0.23800  0.42656  0.82487  1.0000
  C   C2152     1.0  0.28926  0.44750  0.82301  1.0000
  C   C2153     1.0  0.20211  0.41471  0.88767  1.0000
  C   C2154     1.0  0.22083  0.39973  0.91983  1.0000
  C   C2155     1.0  0.18161  0.41765  0.93520  1.0000
  C   C2156     1.0  0.20889  0.43372  0.94364  1.0000
  C   C2157     1.0  0.23808  0.43105  0.95792  1.0000
  C   C2158     1.0  0.26170  0.43788  0.95310  1.0000
  C   C2159     1.0  0.25264  0.41631  0.89633  1.0000
  C   C2160     1.0  0.26430  0.44451  0.92172  1.0000
  C   C2161     1.0  0.23376  0.44952  0.98798  1.0000
  C   C2162     1.0  0.22673  0.48409  0.03496  1.0000
  C   C2163     1.0  0.18110  0.49052  0.04621  1.0000
  C   C2164     1.0  0.26003  0.51084  0.06724  1.0000
  C   C2165     1.0  0.20673  0.45399  0.06541  1.0000
  C   C2166     1.0  0.29046  0.46866  0.09230  1.0000
  C   C2167     1.0  0.23158  0.48661  0.02295  1.0000
  C   C2168     1.0  0.27378  0.49319  0.02216  1.0000
  C   C2169     1.0  0.15571  0.46493  0.04893  1.0000
  C   C2170     1.0  0.20416  0.48348  0.12571  1.0000
  C   C2171     1.0  0.21586  0.46355  0.15754  1.0000
  C   C2172     1.0  0.19596  0.50911  0.18198  1.0000
  C   C2173     1.0  0.25401  0.49268  0.15850  1.0000
  C   C2174     1.0  0.30082  0.48199  0.21337  1.0000
  C   C2175     1.0  0.22683  0.49125  0.07188  1.0000
  C   C2176     1.0  0.29920  0.49125  0.10006  1.0000
  C   C2177     1.0  0.19074  0.45499  0.23010  1.0000
  C   C2178     1.0  0.25506  0.48970  0.22881  1.0000
  C   C2179     1.0  0.21852  0.50283  0.26997  1.0000
  C   C2180     1.0  0.24280  0.49906  0.23380  1.0000
  C   C2181     1.0  0.23844  0.44982  0.24963  1.0000
  C   C2182     1.0  0.28572  0.48932  0.29414  1.0000
  C   C2183     1.0  0.24833  0.50465  0.22180  1.0000
  C   C2184     1.0  0.27649  0.49838  0.26019  1.0000
  C   C2185     1.0  0.19504  0.47364  0.34213  1.0000
  C   C2186     1.0  0.24071  0.45430  0.31369  1.0000
  C   C2187     1.0  0.19072  0.50631  0.32433  1.0000
  C   C2188     1.0  0.20307  0.49446  0.33041  1.0000
  C   C2189     1.0  0.25212  0.48859  0.31833  1.0000
  C   C2190     1.0  0.26109  0.46089  0.35406  1.0000
  C   C2191     1.0  0.22816  0.50939  0.33517  1.0000
  C   C2192     1.0  0.28077  0.48621  0.35570  1.0000
  C   C2193     1.0  0.17822  0.47083  0.40329  1.0000
  C   C2194     1.0  0.23835  0.48321  0.43783  1.0000
  C   C2195     1.0  0.22795  0.48175  0.43984  1.0000
  C   C2196     1.0  0.19739  0.50606  0.45537  1.0000
  C   C2197     1.0  0.27014  0.47314  0.41400  1.0000
  C   C2198     1.0  0.30438  0.48025  0.44937  1.0000
  C   C2199     1.0  0.25879  0.48224  0.39027  1.0000
  C   C2200     1.0  0.25251  0.52362  0.41618  1.0000
  C   C2201     1.0  0.19342  0.45855  0.49690  1.0000
  C   C2202     1.0  0.23628  0.46975  0.51365  1.0000
  C   C2203     1.0  0.21531  0.50340  0.52478  1.0000
  C   C2204     1.0  0.22475  0.50651  0.57795  1.0000
  C   C2205     1.0  0.24436  0.45960  0.54071  1.0000
  C   C2206     1.0  0.26209  0.48164  0.56815  1.0000
  C   C2207     1.0  0.22192  0.48437  0.52139  1.0000
  C   C2208     1.0  0.30718  0.47982  0.51285  1.0000
  C   C2209     1.0  0.18043  0.45775  0.58477  1.0000
  C   C2210     1.0  0.25741  0.45992  0.59738  1.0000
  C   C2211     1.0  0.18799  0.50251  0.65895  1.0000
  C   C2212     1.0  0.23959  0.51462  0.68302  1.0000
  C   C2213     1.0  0.23518  0.47315  0.65509  1.0000
  C   C2214     1.0  0.22712  0.48168  0.69437  1.0000
  C   C2215     1.0  0.27230  0.47467  0.60170  1.0000
  C   C2216     1.0  0.32095  0.49711  0.66740  1.0000
  C   C2217     1.0  0.18205  0.46870  0.68769  1.0000
  C   C2218     1.0  0.22639  0.48337  0.67858  1.0000
  C   C2219     1.0  0.22257  0.50298  0.78676  1.0000
  C   C2220     1.0  0.25504  0.51578  0.77362  1.0000
  C   C2221     1.0  0.22720  0.48178  0.74354  1.0000
  C   C2222     1.0  0.27895  0.47586  0.75863  1.0000
  C   C2223     1.0  0.25075  0.49271  0.72527  1.0000
  C   C2224     1.0  0.25699  0.50674  0.69689  1.0000
  C   C2225     1.0  0.20203  0.47335  0.81717  1.0000
  C   C2226     1.0  0.23693  0.48333  0.80108  1.0000
  C   C2227     1.0  0.22520  0.48530  0.86947  1.0000
  C   C2228     1.0  0.20307  0.52403  0.86821  1.0000
  C   C2229     1.0  0.26571  0.44629  0.87183  1.0000
  C   C2230     1.0  0.26747  0.48126  0.86663  1.0000
  C   C2231     1.0  0.24402  0.50428  0.81956  1.0000
  C   C2232     1.0  0.25400  0.52919  0.81963  1.0000
  C   C2233     1.0  0.15471  0.46612  0.92140  1.0000
  C   C2234     1.0  0.25059  0.48288  0.92498  1.0000
  C   C2235     1.0  0.19477  0.48248  0.89800  1.0000
  C   C2236     1.0  0.20128  0.49470  0.01948  1.0000
  C   C2237     1.0  0.27224  0.47970  0.93726  1.0000
  C   C2238     1.0  0.29377  0.48879  0.92756  1.0000
  C   C2239     1.0  0.25170  0.47137  0.91733  1.0000
  C   C2240     1.0  0.29824  0.50713  0.90628  1.0000
  C   C2241     1.0  0.20271  0.53179  0.00333  1.0000
  C   C2242     1.0  0.19995  0.52955  0.00732  1.0000
  C   C2243     1.0  0.19219  0.55715  0.09502  1.0000
  C   C2244     1.0  0.21637  0.58777  0.08910  1.0000
  C   C2245     1.0  0.25089  0.52231  0.08723  1.0000
  C   C2246     1.0  0.28830  0.53707  0.09493  1.0000
  C   C2247     1.0  0.21682  0.52431  0.96801  1.0000
  C   C2248     1.0  0.24903  0.56131  0.01441  1.0000
  C   C2249     1.0  0.21122  0.53949  0.12472  1.0000
  C   C2250     1.0  0.27572  0.54166  0.11239  1.0000
  C   C2251     1.0  0.22281  0.54251  0.16574  1.0000
  C   C2252     1.0  0.22102  0.58763  0.20439  1.0000
  C   C2253     1.0  0.21923  0.50706  0.13371  1.0000
  C   C2254     1.0  0.31024  0.54381  0.14551  1.0000
  C   C2255     1.0  0.27839  0.56092  0.12409  1.0000
  C   C2256     1.0  0.26260  0.58276  0.12498  1.0000
  C   C2257     1.0  0.20725  0.49997  0.18800  1.0000
  C   C2258     1.0  0.24520  0.55353  0.24497  1.0000
  C   C2259     1.0  0.20176  0.55700  0.26729  1.0000
  C   C2260     1.0  0.22173  0.56805  0.28451  1.0000
  C   C2261     1.0  0.26315  0.51596  0.27597  1.0000
  C   C2262     1.0  0.29382  0.54113  0.25990  1.0000
  C   C2263     1.0  0.26526  0.56793  0.19850  1.0000
  C   C2264     1.0  0.27095  0.57845  0.22348  1.0000
  C   C2265     1.0  0.24534  0.53143  0.31134  1.0000
  C   C2266     1.0  0.25492  0.54937  0.34562  1.0000
  C   C2267     1.0  0.19601  0.55545  0.35044  1.0000
  C   C2268     1.0  0.24627  0.58326  0.35699  1.0000
  C   C2269     1.0  0.25391  0.51413  0.38681  1.0000
  C   C2270     1.0  0.27510  0.52163  0.38814  1.0000
  C   C2271     1.0  0.23121  0.55000  0.32310  1.0000
  C   C2272     1.0  0.29180  0.55635  0.34081  1.0000
  C   C2273     1.0  0.16203  0.50972  0.39031  1.0000
  C   C2274     1.0  0.25661  0.53966  0.43678  1.0000
  C   C2275     1.0  0.23035  0.55030  0.45231  1.0000
  C   C2276     1.0  0.22214  0.57467  0.50387  1.0000
  C   C2277     1.0  0.23548  0.50628  0.43173  1.0000
  C   C2278     1.0  0.27622  0.54443  0.45743  1.0000
  C   C2279     1.0  0.22543  0.55830  0.42837  1.0000
  C   C2280     1.0  0.26541  0.58568  0.39057  1.0000
  C   C2281     1.0  0.17204  0.53654  0.47437  1.0000
  C   C2282     1.0  0.25880  0.53684  0.50642  1.0000
  C   C2283     1.0  0.20482  0.54004  0.55975  1.0000
  C   C2284     1.0  0.22797  0.55708  0.61507  1.0000
  C   C2285     1.0  0.23193  0.54080  0.53934  1.0000
  C   C2286     1.0  0.30860  0.53800  0.55616  1.0000
  C   C2287     1.0  0.23470  0.56759  0.50125  1.0000
  C   C2288     1.0  0.31813  0.57512  0.52008  1.0000
  C   C2289     1.0  0.18990  0.52675  0.59645  1.0000
  C   C2290     1.0  0.21855  0.52861  0.67019  1.0000
  C   C2291     1.0  0.18642  0.57180  0.63618  1.0000
  C   C2292     1.0  0.24371  0.55225  0.69302  1.0000
  C   C2293     1.0  0.25572  0.51814  0.62732  1.0000
  C   C2294     1.0  0.27712  0.54095  0.63265  1.0000
  C   C2295     1.0  0.25681  0.53853  0.58975  1.0000
  C   C2296     1.0  0.27924  0.59068  0.66682  1.0000
  C   C2297     1.0  0.19002  0.51223  0.71297  1.0000
  C   C2298     1.0  0.22767  0.55858  0.76971  1.0000
  C   C2299     1.0  0.20557  0.56241  0.73370  1.0000
  C   C2300     1.0  0.20733  0.56972  0.75242  1.0000
  C   C2301     1.0  0.27559  0.52973  0.77103  1.0000
  C   C2302     1.0  0.20751  0.52493  0.76546  1.0000
  C   C2303     1.0  0.26836  0.54718  0.71153  1.0000
  C   C2304     1.0  0.26799  0.55649  0.71174  1.0000
  C   C2305     1.0  0.19292  0.53458  0.79689  1.0000
  C   C2306     1.0  0.25495  0.55606  0.82764  1.0000
  C   C2307     1.0  0.19337  0.56038  0.85522  1.0000
  C   C2308     1.0  0.21428  0.58842  0.90006  1.0000
  C   C2309     1.0  0.22137  0.53853  0.84067  1.0000
  C   C2310     1.0  0.26891  0.55248  0.89491  1.0000
  C   C2311     1.0  0.26810  0.55571  0.83544  1.0000
  C   C2312     1.0  0.29851  0.57874  0.79419  1.0000
  C   C2313     1.0  0.24686  0.52957  0.88199  1.0000
  C   C2314     1.0  0.22270  0.52813  0.90043  1.0000
  C   C2315     1.0  0.22772  0.56742  0.98281  1.0000
  C   C2316     1.0  0.20728  0.57703  0.98002  1.0000
  C   C2317     1.0  0.23269  0.50639  0.91063  1.0000
  C   C2318     1.0  0.27744  0.55617  0.97290  1.0000
  C   C2319     1.0  0.20240  0.56355  0.90188  1.0000
  C   C2320     1.0  0.28006  0.55487  0.95887  1.0000
  C   C2321     1.0  0.23355  0.58654  0.01142  1.0000
  C   C2322     1.0  0.21589  0.59044  0.02396  1.0000
  C   C2323     1.0  0.19048  0.61267  0.03384  1.0000
  C   C2324     1.0  0.21045  0.62762  0.09058  1.0000
  C   C2325     1.0  0.22347  0.59264  0.04936  1.0000
  C   C2326     1.0  0.26199  0.60202  0.10499  1.0000
  C   C2327     1.0  0.26459  0.64038  0.01636  1.0000
  C   C2328     1.0  0.28199  0.60596  0.03375  1.0000
  C   C2329     1.0  0.23066  0.60265  0.09195  1.0000
  C   C2330     1.0  0.22835  0.60899  0.11915  1.0000
  C   C2331     1.0  0.16138  0.62706  0.15110  1.0000
  C   C2332     1.0  0.19519  0.61473  0.16698  1.0000
  C   C2333     1.0  0.26446  0.57245  0.15680  1.0000
  C   C2334     1.0  0.24776  0.60703  0.18836  1.0000
  C   C2335     1.0  0.27555  0.60835  0.14464  1.0000
  C   C2336     1.0  0.25399  0.62895  0.12453  1.0000
  C   C2337     1.0  0.16147  0.57083  0.15791  1.0000
  C   C2338     1.0  0.20485  0.61553  0.23439  1.0000
  C   C2339     1.0  0.20364  0.61270  0.27711  1.0000
  C   C2340     1.0  0.22558  0.60713  0.27677  1.0000
  C   C2341     1.0  0.25593  0.56460  0.28189  1.0000
  C   C2342     1.0  0.29457  0.57588  0.25320  1.0000
  C   C2343     1.0  0.23770  0.62768  0.19614  1.0000
  C   C2344     1.0  0.27852  0.63536  0.21008  1.0000
  C   C2345     1.0  0.20703  0.58038  0.29618  1.0000
  C   C2346     1.0  0.22905  0.58916  0.32952  1.0000
  C   C2347     1.0  0.18702  0.60680  0.33670  1.0000
  C   C2348     1.0  0.23769  0.64120  0.38339  1.0000
  C   C2349     1.0  0.24703  0.57628  0.36544  1.0000
  C   C2350     1.0  0.23928  0.59396  0.37513  1.0000
  C   C2351     1.0  0.27834  0.60489  0.26742  1.0000
  C   C2352     1.0  0.26076  0.63769  0.31886  1.0000
  C   C2353     1.0  0.21002  0.58182  0.40211  1.0000
  C   C2354     1.0  0.20927  0.60715  0.38327  1.0000
  C   C2355     1.0  0.17553  0.62772  0.44182  1.0000
  C   C2356     1.0  0.21336  0.62662  0.45517  1.0000
  C   C2357     1.0  0.22536  0.60274  0.42850  1.0000
  C   C2358     1.0  0.28119  0.61956  0.46309  1.0000
  C   C2359     1.0  0.22090  0.62382  0.39670  1.0000
  C   C2360     1.0  0.25309  0.62395  0.41645  1.0000
  C   C2361     1.0  0.20613  0.56960  0.51154  1.0000
  C   C2362     1.0  0.23634  0.58871  0.52104  1.0000
  C   C2363     1.0  0.18109  0.61855  0.55277  1.0000
  C   C2364     1.0  0.26867  0.62442  0.55750  1.0000
  C   C2365     1.0  0.24940  0.58039  0.54269  1.0000
  C   C2366     1.0  0.28500  0.60459  0.60480  1.0000
  C   C2367     1.0  0.28801  0.61057  0.49164  1.0000
  C   C2368     1.0  0.30874  0.64462  0.51057  1.0000
  C   C2369     1.0  0.19921  0.58149  0.59217  1.0000
  C   C2370     1.0  0.21492  0.58787  0.64372  1.0000
  C   C2371     1.0  0.19328  0.62382  0.60760  1.0000
  C   C2372     1.0  0.26110  0.62865  0.68197  1.0000
  C   C2373     1.0  0.24119  0.57946  0.65030  1.0000
  C   C2374     1.0  0.29432  0.59944  0.68976  1.0000
  C   C2375     1.0  0.27680  0.60545  0.58450  1.0000
  C   C2376     1.0  0.22847  0.62440  0.64952  1.0000
  C   C2377     1.0  0.19084  0.58836  0.69826  1.0000
  C   C2378     1.0  0.22913  0.60726  0.71545  1.0000
  C   C2379     1.0  0.20661  0.57508  0.74315  1.0000
  C   C2380     1.0  0.21953  0.61381  0.75193  1.0000
  C   C2381     1.0  0.23679  0.57818  0.74879  1.0000
  C   C2382     1.0  0.20516  0.59773  0.79126  1.0000
  C   C2383     1.0  0.26229  0.62726  0.68403  1.0000
  C   C2384     1.0  0.28136  0.63187  0.71728  1.0000
  C   C2385     1.0  0.18107  0.58196  0.77996  1.0000
  C   C2386     1.0  0.19743  0.60404  0.81595  1.0000
  C   C2387     1.0  0.21724  0.61938  0.87672  1.0000
  C   C2388     1.0  0.22823  0.04915  0.84705  1.0000
  C   C2389     1.0  0.24247  0.58057  0.80892  1.0000
  C   C2390     1.0  0.26543  0.57740  0.90194  1.0000
  C   C2391     1.0  0.30798  0.61991  0.79070  1.0000
  C   C2392     1.0  0.25426  0.62077  0.83618  1.0000
  C   C2393     1.0  0.18189  0.60091  0.90384  1.0000
  C   C2394     1.0  0.20858  0.59763  0.95393  1.0000
  C   C2395     1.0  0.21765  0.62230  0.93922  1.0000
  C   C2396     1.0  0.25671  0.62051  0.91916  1.0000
  C   C2397     1.0  0.24813  0.58016  0.92115  1.0000
  C   C2398     1.0  0.29914  0.61112  0.99370  1.0000
  C   C2399     1.0  0.22514  0.60600  0.90630  1.0000
  C   C2400     1.0  0.31426  0.63310  0.90657  1.0000
  C   C2401     1.0  0.31674  0.04201  0.01084  1.0000
  C   C2402     1.0  0.29539  0.04759  0.02453  1.0000
  C   C2403     1.0  0.33822  0.08217  0.02837  1.0000
  C   C2404     1.0  0.34066  0.04116  0.11887  1.0000
  C   C2405     1.0  0.34544  0.04694  0.02957  1.0000
  C   C2406     1.0  0.40614  0.06880  0.07452  1.0000
  C   C2407     1.0  0.35721  0.05671  0.96224  1.0000
  C   C2408     1.0  0.41095  0.09031  0.03209  1.0000
  C   C2409     1.0  0.30606  0.63421  0.07383  1.0000
  C   C2410     1.0  0.30768  0.04955  0.13746  1.0000
  C   C2411     1.0  0.27856  0.06006  0.10721  1.0000
  C   C2412     1.0  0.34320  0.08985  0.18531  1.0000
  C   C2413     1.0  0.37500  0.62674  0.15299  1.0000
  C   C2414     1.0  0.39768  0.04917  0.17479  1.0000
  C   C2415     1.0  0.35160  0.06822  0.13584  1.0000
  C   C2416     1.0  0.36350  0.06573  0.11963  1.0000
  C   C2417     1.0  0.27951  0.63263  0.21531  1.0000
  C   C2418     1.0  0.29011  0.03878  0.19178  1.0000
  C   C2419     1.0  0.28693  0.05752  0.24431  1.0000
  C   C2420     1.0  0.34562  0.07299  0.25244  1.0000
  C   C2421     1.0  0.35597  0.03751  0.24674  1.0000
  C   C2422     1.0  0.37631  0.07996  0.24183  1.0000
  C   C2423     1.0  0.35947  0.07945  0.21082  1.0000
  C   C2424     1.0  0.36110  0.09418  0.23923  1.0000
  C   C2425     1.0  0.28722  0.06333  0.29296  1.0000
  C   C2426     1.0  0.32019  0.06729  0.33082  1.0000
  C   C2427     1.0  0.29045  0.07756  0.37873  1.0000
  C   C2428     1.0  0.36554  0.09036  0.37070  1.0000
  C   C2429     1.0  0.36162  0.64584  0.35126  1.0000
  C   C2430     1.0  0.37243  0.04345  0.35766  1.0000
  C   C2431     1.0  0.35382  0.06522  0.28725  1.0000
  C   C2432     1.0  0.36343  0.08626  0.31707  1.0000
  C   C2433     1.0  0.31067  0.64112  0.37188  1.0000
  C   C2434     1.0  0.28101  0.04533  0.43812  1.0000
  C   C2435     1.0  0.29487  0.05197  0.47634  1.0000
  C   C2436     1.0  0.28939  0.07921  0.43918  1.0000
  C   C2437     1.0  0.32913  0.03893  0.42560  1.0000
  C   C2438     1.0  0.37218  0.03535  0.47326  1.0000
  C   C2439     1.0  0.38217  0.07024  0.42476  1.0000
  C   C2440     1.0  0.33953  0.08812  0.45950  1.0000
  C   C2441     1.0  0.28952  0.03532  0.50796  1.0000
  C   C2442     1.0  0.33667  0.05356  0.52317  1.0000
  C   C2443     1.0  0.33174  0.05827  0.56026  1.0000
  C   C2444     1.0  0.31886  0.06937  0.59326  1.0000
  C   C2445     1.0  0.39168  0.61630  0.58177  1.0000
  C   C2446     1.0  0.42076  0.06486  0.56742  1.0000
  C   C2447     1.0  0.34510  0.05952  0.50730  1.0000
  C   C2448     1.0  0.37739  0.07659  0.50927  1.0000
  C   C2449     1.0  0.32020  0.64635  0.63910  1.0000
  C   C2450     1.0  0.29984  0.04740  0.63370  1.0000
  C   C2451     1.0  0.30006  0.07969  0.66581  1.0000
  C   C2452     1.0  0.32861  0.06291  0.64766  1.0000
  C   C2453     1.0  0.32595  0.63974  0.65898  1.0000
  C   C2454     1.0  0.39945  0.05500  0.68934  1.0000
  C   C2455     1.0  0.37020  0.05431  0.57899  1.0000
  C   C2456     1.0  0.34255  0.08986  0.63272  1.0000
  C   C2457     1.0  0.31321  0.63672  0.71366  1.0000
  C   C2458     1.0  0.37029  0.03683  0.71343  1.0000
  C   C2459     1.0  0.29634  0.04617  0.73306  1.0000
  C   C2460     1.0  0.33437  0.08204  0.76830  1.0000
  C   C2461     1.0  0.30655  0.62756  0.71393  1.0000
  C   C2462     1.0  0.38815  0.05863  0.76435  1.0000
  C   C2463     1.0  0.36662  0.07358  0.67658  1.0000
  C   C2464     1.0  0.40047  0.09191  0.72191  1.0000
  C   C2465     1.0  0.31648  0.64039  0.78788  1.0000
  C   C2466     1.0  0.31177  0.04101  0.80924  1.0000
  C   C2467     1.0  0.29875  0.05745  0.87379  1.0000
  C   C2468     1.0  0.33033  0.06476  0.87932  1.0000
  C   C2469     1.0  0.32719  0.03906  0.83611  1.0000
  C   C2470     1.0  0.36103  0.03986  0.85412  1.0000
  C   C2471     1.0  0.32279  0.05897  0.79999  1.0000
  C   C2472     1.0  0.34362  0.07308  0.82336  1.0000
  C   C2473     1.0  0.28681  0.64360  0.91108  1.0000
  C   C2474     1.0  0.34539  0.04716  0.89281  1.0000
  C   C2475     1.0  0.28487  0.03846  0.95088  1.0000
  C   C2476     1.0  0.32272  0.04937  0.99614  1.0000
  C   C2477     1.0  0.32242  0.63485  0.94959  1.0000
  C   C2478     1.0  0.33542  0.04479  0.98952  1.0000
  C   C2479     1.0  0.38534  0.05289  0.92547  1.0000
  C   C2480     1.0  0.37695  0.07048  0.90530  1.0000
  C   C2481     1.0  0.30537  0.11032  0.96161  1.0000
  C   C2482     1.0  0.35833  0.14199  0.03706  1.0000
  C   C2483     1.0  0.29157  0.14220  0.06801  1.0000
  C   C2484     1.0  0.32072  0.16322  0.03669  1.0000
  C   C2485     1.0  0.32138  0.11527  0.02597  1.0000
  C   C2486     1.0  0.39444  0.09049  0.07486  1.0000
  C   C2487     1.0  0.35628  0.11868  0.98651  1.0000
  C   C2488     1.0  0.35325  0.16764  0.03252  1.0000
  C   C2489     1.0  0.31918  0.10859  0.10405  1.0000
  C   C2490     1.0  0.27663  0.09316  0.13305  1.0000
  C   C2491     1.0  0.27893  0.13880  0.14186  1.0000
  C   C2492     1.0  0.33493  0.15390  0.17942  1.0000
  C   C2493     1.0  0.33146  0.10228  0.12998  1.0000
  C   C2494     1.0  0.36914  0.10851  0.17886  1.0000
  C   C2495     1.0  0.33024  0.11869  0.09733  1.0000
  C   C2496     1.0  0.36615  0.14439  0.09043  1.0000
  C   C2497     1.0  0.30122  0.09859  0.16741  1.0000
  C   C2498     1.0  0.34083  0.08414  0.23908  1.0000
  C   C2499     1.0  0.31411  0.12413  0.20778  1.0000
  C   C2500     1.0  0.36535  0.15692  0.28474  1.0000
  C   C2501     1.0  0.36830  0.08134  0.27309  1.0000
  C   C2502     1.0  0.38789  0.13732  0.27196  1.0000
  C   C2503     1.0  0.33914  0.10815  0.20771  1.0000
  C   C2504     1.0  0.36583  0.13415  0.19609  1.0000
  C   C2505     1.0  0.28532  0.11547  0.29938  1.0000
  C   C2506     1.0  0.33118  0.10745  0.31275  1.0000
  C   C2507     1.0  0.31672  0.13531  0.34640  1.0000
  C   C2508     1.0  0.33996  0.12878  0.40414  1.0000
  C   C2509     1.0  0.34516  0.09746  0.33146  1.0000
  C   C2510     1.0  0.37599  0.09765  0.39214  1.0000
  C   C2511     1.0  0.33439  0.12761  0.28855  1.0000
  C   C2512     1.0  0.37594  0.12820  0.31069  1.0000
  C   C2513     1.0  0.30918  0.09908  0.40804  1.0000
  C   C2514     1.0  0.37954  0.10298  0.37650  1.0000
  C   C2515     1.0  0.26674  0.12945  0.46200  1.0000
  C   C2516     1.0  0.27365  0.12960  0.48812  1.0000
  C   C2517     1.0  0.37812  0.08055  0.46688  1.0000
  C   C2518     1.0  0.35688  0.11660  0.48310  1.0000
  C   C2519     1.0  0.37321  0.13156  0.39596  1.0000
  C   C2520     1.0  0.35482  0.13740  0.41159  1.0000
  C   C2521     1.0  0.33588  0.10722  0.44784  1.0000
  C   C2522     1.0  0.31876  0.11208  0.48964  1.0000
  C   C2523     1.0  0.32437  0.15039  0.55231  1.0000
  C   C2524     1.0  0.31241  0.14088  0.62927  1.0000
  C   C2525     1.0  0.38744  0.08448  0.56535  1.0000
  C   C2526     1.0  0.37181  0.11818  0.62476  1.0000
  C   C2527     1.0  0.32282  0.13721  0.51300  1.0000
  C   C2528     1.0  0.38667  0.11569  0.55676  1.0000
  C   C2529     1.0  0.33154  0.10055  0.60696  1.0000
  C   C2530     1.0  0.32198  0.12388  0.63628  1.0000
  C   C2531     1.0  0.30951  0.13152  0.68576  1.0000
  C   C2532     1.0  0.29302  0.13156  0.70408  1.0000
  C   C2533     1.0  0.32245  0.09346  0.66012  1.0000
  C   C2534     1.0  0.32555  0.10202  0.66328  1.0000
  C   C2535     1.0  0.36807  0.12985  0.64131  1.0000
  C   C2536     1.0  0.37257  0.13547  0.59750  1.0000
  C   C2537     1.0  0.27771  0.08522  0.68200  1.0000
  C   C2538     1.0  0.31103  0.12564  0.70936  1.0000
  C   C2539     1.0  0.29536  0.11250  0.72308  1.0000
  C   C2540     1.0  0.34966  0.14561  0.78065  1.0000
  C   C2541     1.0  0.34290  0.09552  0.77297  1.0000
  C   C2542     1.0  0.38350  0.11732  0.80175  1.0000
  C   C2543     1.0  0.35620  0.14481  0.68209  1.0000
  C   C2544     1.0  0.39374  0.14656  0.72803  1.0000
  C   C2545     1.0  0.28946  0.11802  0.78722  1.0000
  C   C2546     1.0  0.30497  0.11449  0.84048  1.0000
  C   C2547     1.0  0.27871  0.13081  0.86498  1.0000
  C   C2548     1.0  0.33107  0.13429  0.84414  1.0000
  C   C2549     1.0  0.35396  0.10809  0.86988  1.0000
  C   C2550     1.0  0.41114  0.11306  0.90356  1.0000
  C   C2551     1.0  0.32949  0.12190  0.82434  1.0000
  C   C2552     1.0  0.39760  0.14921  0.79744  1.0000
  C   C2553     1.0  0.31088  0.09955  0.91952  1.0000
  C   C2554     1.0  0.31325  0.09897  0.88125  1.0000
  C   C2555     1.0  0.35178  0.13199  0.99134  1.0000
  C   C2556     1.0  0.30470  0.13016  0.00148  1.0000
  C   C2557     1.0  0.38137  0.09956  0.93690  1.0000
  C   C2558     1.0  0.36573  0.09836  0.93063  1.0000
  C   C2559     1.0  0.35923  0.12065  0.93058  1.0000
  C   C2560     1.0  0.38423  0.13130  0.89346  1.0000
  C   C2561     1.0  0.30692  0.14461  0.00572  1.0000
  C   C2562     1.0  0.35431  0.18634  0.02113  1.0000
  C   C2563     1.0  0.28171  0.18101  0.05649  1.0000
  C   C2564     1.0  0.33893  0.19736  0.08480  1.0000
  C   C2565     1.0  0.36041  0.16071  0.06485  1.0000
  C   C2566     1.0  0.31789  0.17727  0.08462  1.0000
  C   C2567     1.0  0.39401  0.16200  0.00398  1.0000
  C   C2568     1.0  0.39364  0.18914  0.04627  1.0000
  C   C2569     1.0  0.32633  0.15994  0.10109  1.0000
  C   C2570     1.0  0.35974  0.17288  0.14033  1.0000
  C   C2571     1.0  0.29650  0.19605  0.14087  1.0000
  C   C2572     1.0  0.34068  0.21994  0.19886  1.0000
  C   C2573     1.0  0.30095  0.13007  0.14618  1.0000
  C   C2574     1.0  0.36834  0.13561  0.22186  1.0000
  C   C2575     1.0  0.34099  0.16070  0.07927  1.0000
  C   C2576     1.0  0.38172  0.20288  0.12891  1.0000
  C   C2577     1.0  0.33110  0.14001  0.21224  1.0000
  C   C2578     1.0  0.31241  0.17918  0.23384  1.0000
  C   C2579     1.0  0.24429  0.19992  0.23919  1.0000
  C   C2580     1.0  0.32668  0.22167  0.25208  1.0000
  C   C2581     1.0  0.33520  0.14791  0.26753  1.0000
  C   C2582     1.0  0.33219  0.19221  0.24573  1.0000
  C   C2583     1.0  0.34928  0.19377  0.21938  1.0000
  C   C2584     1.0  0.41241  0.20464  0.21307  1.0000
  C   C2585     1.0  0.28931  0.17331  0.26554  1.0000
  C   C2586     1.0  0.36410  0.19055  0.32033  1.0000
  C   C2587     1.0  0.29751  0.15892  0.35607  1.0000
  C   C2588     1.0  0.36153  0.20791  0.32462  1.0000
  C   C2589     1.0  0.38412  0.16645  0.35593  1.0000
  C   C2590     1.0  0.37013  0.17925  0.33624  1.0000
  C   C2591     1.0  0.35959  0.18091  0.32564  1.0000
  C   C2592     1.0  0.35340  0.19662  0.27642  1.0000
  C   C2593     1.0  0.32395  0.15797  0.39985  1.0000
  C   C2594     1.0  0.32486  0.17597  0.44005  1.0000
  C   C2595     1.0  0.30921  0.19382  0.42139  1.0000
  C   C2596     1.0  0.30960  0.19733  0.48342  1.0000
  C   C2597     1.0  0.34184  0.14783  0.46723  1.0000
  C   C2598     1.0  0.36815  0.18117  0.46260  1.0000
  C   C2599     1.0  0.32973  0.19292  0.38858  1.0000
  C   C2600     1.0  0.37643  0.21553  0.42469  1.0000
  C   C2601     1.0  0.33662  0.14009  0.49383  1.0000
  C   C2602     1.0  0.33612  0.15127  0.49411  1.0000
  C   C2603     1.0  0.29811  0.17289  0.55487  1.0000
  C   C2604     1.0  0.34385  0.18838  0.58486  1.0000
  C   C2605     1.0  0.32453  0.15691  0.59390  1.0000
  C   C2606     1.0  0.38380  0.16173  0.56965  1.0000
  C   C2607     1.0  0.38330  0.18555  0.50673  1.0000
  C   C2608     1.0  0.35853  0.20993  0.50779  1.0000
  C   C2609     1.0  0.30558  0.15713  0.55536  1.0000
  C   C2610     1.0  0.32537  0.18121  0.62441  1.0000
  C   C2611     1.0  0.31098  0.17258  0.69438  1.0000
  C   C2612     1.0  0.32158  0.20087  0.67189  1.0000
  C   C2613     1.0  0.31314  0.16755  0.67593  1.0000
  C   C2614     1.0  0.38586  0.18664  0.66670  1.0000
  C   C2615     1.0  0.34024  0.17994  0.57018  1.0000
  C   C2616     1.0  0.35756  0.18429  0.65103  1.0000
  C   C2617     1.0  0.25841  0.15715  0.64146  1.0000
  C   C2618     1.0  0.32463  0.18732  0.73497  1.0000
  C   C2619     1.0  0.28912  0.20287  0.78516  1.0000
  C   C2620     1.0  0.33137  0.18715  0.75656  1.0000
  C   C2621     1.0  0.35179  0.16773  0.73791  1.0000
  C   C2622     1.0  0.36696  0.18050  0.77527  1.0000
  C   C2623     1.0  0.33824  0.18073  0.65699  1.0000
  C   C2624     1.0  0.34232  0.17054  0.71010  1.0000
  C   C2625     1.0  0.28738  0.15684  0.78896  1.0000
  C   C2626     1.0  0.31934  0.18064  0.84246  1.0000
  C   C2627     1.0  0.33550  0.18428  0.82167  1.0000
  C   C2628     1.0  0.31824  0.22062  0.90386  1.0000
  C   C2629     1.0  0.35795  0.15988  0.84257  1.0000
  C   C2630     1.0  0.37882  0.15948  0.86668  1.0000
  C   C2631     1.0  0.36385  0.18685  0.78552  1.0000
  C   C2632     1.0  0.36631  0.18538  0.83268  1.0000
  C   C2633     1.0  0.29381  0.15605  0.90173  1.0000
  C   C2634     1.0  0.33656  0.15840  0.93714  1.0000
  C   C2635     1.0  0.29560  0.18610  0.97669  1.0000
  C   C2636     1.0  0.31716  0.19750  0.97332  1.0000
  C   C2637     1.0  0.35611  0.16520  0.95073  1.0000
  C   C2638     1.0  0.33425  0.14827  0.01667  1.0000
  C   C2639     1.0  0.35503  0.20450  0.88128  1.0000
  C   C2640     1.0  0.39897  0.19926  0.93239  1.0000
  C   C2641     1.0  0.30061  0.23119  0.01441  1.0000
  C   C2642     1.0  0.33974  0.21383  0.99730  1.0000
  C   C2643     1.0  0.31906  0.23649  0.07197  1.0000
  C   C2644     1.0  0.32478  0.26225  0.13511  1.0000
  C   C2645     1.0  0.32007  0.20896  0.03667  1.0000
  C   C2646     1.0  0.40819  0.23190  0.07720  1.0000
  C   C2647     1.0  0.35049  0.23755  0.00646  1.0000
  C   C2648     1.0  0.39109  0.28134  0.00245  1.0000
  C   C2649     1.0  0.31620  0.22452  0.09822  1.0000
  C   C2650     1.0  0.34696  0.24062  0.14449  1.0000
  C   C2651     1.0  0.31512  0.25535  0.14283  1.0000
  C   C2652     1.0  0.33112  0.26067  0.20958  1.0000
  C   C2653     1.0  0.36585  0.23375  0.15295  1.0000
  C   C2654     1.0  0.39322  0.22893  0.19315  1.0000
  C   C2655     1.0  0.38393  0.24555  0.13425  1.0000
  C   C2656     1.0  0.34816  0.26542  0.15309  1.0000
  C   C2657     1.0  0.29085  0.21569  0.20387  1.0000
  C   C2658     1.0  0.34568  0.23873  0.19546  1.0000
  C   C2659     1.0  0.29560  0.25939  0.22093  1.0000
  C   C2660     1.0  0.32776  0.24856  0.24037  1.0000
  C   C2661     1.0  0.34106  0.19755  0.23655  1.0000
  C   C2662     1.0  0.40481  0.25249  0.25818  1.0000
  C   C2663     1.0  0.32721  0.24614  0.22757  1.0000
  C   C2664     1.0  0.36879  0.25915  0.22642  1.0000
  C   C2665     1.0  0.27124  0.21720  0.29435  1.0000
  C   C2666     1.0  0.33020  0.22001  0.31972  1.0000
  C   C2667     1.0  0.29483  0.24638  0.34013  1.0000
  C   C2668     1.0  0.29513  0.25090  0.36971  1.0000
  C   C2669     1.0  0.33348  0.22595  0.36980  1.0000
  C   C2670     1.0  0.35847  0.23917  0.38193  1.0000
  C   C2671     1.0  0.35941  0.24975  0.30241  1.0000
  C   C2672     1.0  0.36291  0.26402  0.30636  1.0000
  C   C2673     1.0  0.27494  0.21615  0.37711  1.0000
  C   C2674     1.0  0.31246  0.24748  0.44787  1.0000
  C   C2675     1.0  0.32358  0.26383  0.45097  1.0000
  C   C2676     1.0  0.29831  0.27547  0.46437  1.0000
  C   C2677     1.0  0.32320  0.20116  0.41526  1.0000
  C   C2678     1.0  0.40382  0.21917  0.47791  1.0000
  C   C2679     1.0  0.34276  0.26664  0.39108  1.0000
  C   C2680     1.0  0.37985  0.25724  0.39203  1.0000
  C   C2681     1.0  0.31027  0.19068  0.53978  1.0000
  C   C2682     1.0  0.35641  0.23586  0.51559  1.0000
  C   C2683     1.0  0.29638  0.23152  0.50924  1.0000
  C   C2684     1.0  0.33839  0.25563  0.56880  1.0000
  C   C2685     1.0  0.35040  0.22293  0.55709  1.0000
  C   C2686     1.0  0.36821  0.23409  0.57362  1.0000
  C   C2687     1.0  0.34761  0.21953  0.50215  1.0000
  C   C2688     1.0  0.38667  0.24984  0.52979  1.0000
  C   C2689     1.0  0.30078  0.20746  0.60422  1.0000
  C   C2690     1.0  0.35188  0.22315  0.61623  1.0000
  C   C2691     1.0  0.31399  0.29029  0.62714  1.0000
  C   C2692     1.0  0.33067  0.26088  0.69558  1.0000
  C   C2693     1.0  0.35266  0.24359  0.64691  1.0000
  C   C2694     1.0  0.37031  0.22345  0.67825  1.0000
  C   C2695     1.0  0.36830  0.24112  0.64290  1.0000
  C   C2696     1.0  0.37009  0.28350  0.63022  1.0000
  C   C2697     1.0  0.33216  0.19481  0.71383  1.0000
  C   C2698     1.0  0.33846  0.23173  0.71036  1.0000
  C   C2699     1.0  0.31257  0.25799  0.70641  1.0000
  C   C2700     1.0  0.28240  0.26240  0.77565  1.0000
  C   C2701     1.0  0.36398  0.19635  0.71454  1.0000
  C   C2702     1.0  0.37187  0.23661  0.79287  1.0000
  C   C2703     1.0  0.36376  0.24048  0.67250  1.0000
  C   C2704     1.0  0.38920  0.27303  0.72152  1.0000
  C   C2705     1.0  0.29954  0.22563  0.79841  1.0000
  C   C2706     1.0  0.30670  0.20736  0.81769  1.0000
  C   C2707     1.0  0.26657  0.22968  0.80938  1.0000
  C   C2708     1.0  0.36559  0.24493  0.88567  1.0000
  C   C2709     1.0  0.35644  0.20646  0.87384  1.0000
  C   C2710     1.0  0.39650  0.23147  0.86371  1.0000
  C   C2711     1.0  0.35087  0.24465  0.79045  1.0000
  C   C2712     1.0  0.36962  0.28046  0.83162  1.0000
  C   C2713     1.0  0.29350  0.22626  0.88330  1.0000
  C   C2714     1.0  0.31695  0.22526  0.92473  1.0000
  C   C2715     1.0  0.29431  0.22170  0.93548  1.0000
  C   C2716     1.0  0.34286  0.26745  0.99586  1.0000
  C   C2717     1.0  0.35841  0.21452  0.92122  1.0000
  C   C2718     1.0  0.37023  0.24084  0.00479  1.0000
  C   C2719     1.0  0.34752  0.24295  0.89970  1.0000
  C   C2720     1.0  0.38143  0.27215  0.95606  1.0000
  C   C2721     1.0  0.31549  0.26108  0.00904  1.0000
  C   C2722     1.0  0.34594  0.27728  0.99378  1.0000
  C   C2723     1.0  0.29370  0.32865  0.09859  1.0000
  C   C2724     1.0  0.34920  0.32664  0.08491  1.0000
  C   C2725     1.0  0.34394  0.28975  0.02962  1.0000
  C   C2726     1.0  0.36046  0.26980  0.08975  1.0000
  C   C2727     1.0  0.37571  0.31116  0.00615  1.0000
  C   C2728     1.0  0.40223  0.31707  0.04917  1.0000
  C   C2729     1.0  0.30154  0.27760  0.09666  1.0000
  C   C2730     1.0  0.36027  0.27619  0.14215  1.0000
  C   C2731     1.0  0.28151  0.31096  0.11820  1.0000
  C   C2732     1.0  0.31846  0.33487  0.16253  1.0000
  C   C2733     1.0  0.34114  0.27413  0.13650  1.0000
  C   C2734     1.0  0.39485  0.29300  0.16451  1.0000
  C   C2735     1.0  0.36544  0.29161  0.09745  1.0000
  C   C2736     1.0  0.36279  0.33526  0.11852  1.0000
  C   C2737     1.0  0.30829  0.26714  0.22867  1.0000
  C   C2738     1.0  0.29984  0.29310  0.21596  1.0000
  C   C2739     1.0  0.33715  0.29731  0.26601  1.0000
  C   C2740     1.0  0.33948  0.30889  0.29097  1.0000
  C   C2741     1.0  0.35884  0.27903  0.24582  1.0000
  C   C2742     1.0  0.39318  0.28312  0.27962  1.0000
  C   C2743     1.0  0.34459  0.29371  0.15469  1.0000
  C   C2744     1.0  0.35606  0.31875  0.21174  1.0000
  C   C2745     1.0  0.29602  0.26656  0.28197  1.0000
  C   C2746     1.0  0.31980  0.29278  0.30725  1.0000
  C   C2747     1.0  0.30263  0.30956  0.36152  1.0000
  C   C2748     1.0  0.34416  0.32748  0.39864  1.0000
  C   C2749     1.0  0.34094  0.25369  0.37623  1.0000
  C   C2750     1.0  0.36947  0.27731  0.40110  1.0000
  C   C2751     1.0  0.35601  0.29536  0.31379  1.0000
  C   C2752     1.0  0.38008  0.33068  0.31517  1.0000
  C   C2753     1.0  0.29834  0.29992  0.40477  1.0000
  C   C2754     1.0  0.35475  0.29431  0.44992  1.0000
  C   C2755     1.0  0.30409  0.30314  0.42189  1.0000
  C   C2756     1.0  0.34934  0.30558  0.45250  1.0000
  C   C2757     1.0  0.38067  0.27147  0.45119  1.0000
  C   C2758     1.0  0.33785  0.31605  0.48573  1.0000
  C   C2759     1.0  0.35191  0.31476  0.39622  1.0000
  C   C2760     1.0  0.34351  0.33144  0.43023  1.0000
  C   C2761     1.0  0.29183  0.28906  0.51535  1.0000
  C   C2762     1.0  0.33636  0.30713  0.49789  1.0000
  C   C2763     1.0  0.30307  0.30369  0.53743  1.0000
  C   C2764     1.0  0.32130  0.31599  0.53049  1.0000
  C   C2765     1.0  0.36080  0.26061  0.53530  1.0000
  C   C2766     1.0  0.38926  0.29135  0.57398  1.0000
  C   C2767     1.0  0.36340  0.30098  0.52385  1.0000
  C   C2768     1.0  0.36324  0.35414  0.51270  1.0000
  C   C2769     1.0  0.30947  0.27562  0.61222  1.0000
  C   C2770     1.0  0.33020  0.29561  0.63443  1.0000
  C   C2771     1.0  0.29590  0.31514  0.66495  1.0000
  C   C2772     1.0  0.31895  0.32910  0.66429  1.0000
  C   C2773     1.0  0.33310  0.31160  0.69706  1.0000
  C   C2774     1.0  0.35930  0.29198  0.68906  1.0000
  C   C2775     1.0  0.32689  0.30523  0.56302  1.0000
  C   C2776     1.0  0.39480  0.31017  0.66002  1.0000
  C   C2777     1.0  0.32501  0.28201  0.70418  1.0000
  C   C2778     1.0  0.33284  0.31225  0.71010  1.0000
  C   C2779     1.0  0.33299  0.31065  0.74298  1.0000
  C   C2780     1.0  0.34934  0.32338  0.77263  1.0000
  C   C2781     1.0  0.32972  0.27297  0.79852  1.0000
  C   C2782     1.0  0.35121  0.29029  0.76836  1.0000
  C   C2783     1.0  0.34916  0.31086  0.67386  1.0000
  C   C2784     1.0  0.38453  0.33796  0.76468  1.0000
  C   C2785     1.0  0.27976  0.28942  0.75717  1.0000
  C   C2786     1.0  0.32438  0.29841  0.79531  1.0000
  C   C2787     1.0  0.27639  0.31248  0.85241  1.0000
  C   C2788     1.0  0.27826  0.32445  0.92229  1.0000
  C   C2789     1.0  0.35232  0.29365  0.85846  1.0000
  C   C2790     1.0  0.32639  0.29209  0.86886  1.0000
  C   C2791     1.0  0.36112  0.30293  0.77906  1.0000
  C   C2792     1.0  0.36567  0.32202  0.82440  1.0000
  C   C2793     1.0  0.27288  0.28550  0.90066  1.0000
  C   C2794     1.0  0.28894  0.29685  0.92270  1.0000
  C   C2795     1.0  0.30290  0.29307  0.94435  1.0000
  C   C2796     1.0  0.31908  0.32403  0.95815  1.0000
  C   C2797     1.0  0.39375  0.26081  0.97500  1.0000
  C   C2798     1.0  0.35030  0.28259  0.96231  1.0000
  C   C2799     1.0  0.38643  0.32549  0.88864  1.0000
  C   C2800     1.0  0.39465  0.33145  0.95252  1.0000
  C   C2801     1.0  0.31977  0.33932  0.99844  1.0000
  C   C2802     1.0  0.31598  0.33962  0.99862  1.0000
  C   C2803     1.0  0.31190  0.34243  0.04467  1.0000
  C   C2804     1.0  0.34027  0.37881  0.08747  1.0000
  C   C2805     1.0  0.33314  0.34963  0.01970  1.0000
  C   C2806     1.0  0.40743  0.34832  0.09511  1.0000
  C   C2807     1.0  0.32113  0.37665  0.00731  1.0000
  C   C2808     1.0  0.33783  0.39920  0.03079  1.0000
  C   C2809     1.0  0.27278  0.32439  0.06418  1.0000
  C   C2810     1.0  0.34682  0.34400  0.12579  1.0000
  C   C2811     1.0  0.29689  0.37452  0.13661  1.0000
  C   C2812     1.0  0.33132  0.40795  0.18037  1.0000
  C   C2813     1.0  0.34173  0.34550  0.14281  1.0000
  C   C2814     1.0  0.39955  0.38570  0.18977  1.0000
  C   C2815     1.0  0.37006  0.35146  0.11630  1.0000
  C   C2816     1.0  0.36436  0.36338  0.11849  1.0000
  C   C2817     1.0  0.31514  0.34207  0.21579  1.0000
  C   C2818     1.0  0.30408  0.34009  0.26042  1.0000
  C   C2819     1.0  0.30662  0.38220  0.27310  1.0000
  C   C2820     1.0  0.30812  0.38187  0.27386  1.0000
  C   C2821     1.0  0.37419  0.34352  0.28945  1.0000
  C   C2822     1.0  0.36736  0.36724  0.28027  1.0000
  C   C2823     1.0  0.37779  0.36770  0.19515  1.0000
  C   C2824     1.0  0.36031  0.40879  0.24660  1.0000
  C   C2825     1.0  0.28617  0.35204  0.30919  1.0000
  C   C2826     1.0  0.32091  0.34373  0.33180  1.0000
  C   C2827     1.0  0.30164  0.38612  0.37186  1.0000
  C   C2828     1.0  0.28806  0.38603  0.40079  1.0000
  C   C2829     1.0  0.33574  0.33019  0.34048  1.0000
  C   C2830     1.0  0.35710  0.36517  0.38734  1.0000
  C   C2831     1.0  0.35953  0.37510  0.29496  1.0000
  C   C2832     1.0  0.40186  0.40771  0.35503  1.0000
  C   C2833     1.0  0.30826  0.36021  0.43018  1.0000
  C   C2834     1.0  0.31045  0.36346  0.46366  1.0000
  C   C2835     1.0  0.29209  0.35804  0.43790  1.0000
  C   C2836     1.0  0.31380  0.38768  0.48775  1.0000
  C   C2837     1.0  0.38179  0.35523  0.41730  1.0000
  C   C2838     1.0  0.36818  0.36018  0.50468  1.0000
  C   C2839     1.0  0.33362  0.40097  0.37466  1.0000
  C   C2840     1.0  0.36390  0.40300  0.40465  1.0000
  C   C2841     1.0  0.28983  0.31590  0.50931  1.0000
  C   C2842     1.0  0.35946  0.36182  0.51854  1.0000
  C   C2843     1.0  0.32623  0.38122  0.55862  1.0000
  C   C2844     1.0  0.31563  0.38698  0.56765  1.0000
  C   C2845     1.0  0.33641  0.34258  0.56173  1.0000
  C   C2846     1.0  0.36985  0.35580  0.59849  1.0000
  C   C2847     1.0  0.36292  0.37053  0.47379  1.0000
  C   C2848     1.0  0.37427  0.39112  0.51428  1.0000
  C   C2849     1.0  0.28282  0.34310  0.59432  1.0000
  C   C2850     1.0  0.32001  0.37236  0.62570  1.0000
  C   C2851     1.0  0.29652  0.39152  0.63920  1.0000
  C   C2852     1.0  0.32714  0.39554  0.67370  1.0000
  C   C2853     1.0  0.33475  0.32754  0.69412  1.0000
  C   C2854     1.0  0.36615  0.36753  0.69422  1.0000
  C   C2855     1.0  0.34809  0.36813  0.59244  1.0000
  C   C2856     1.0  0.35144  0.37397  0.62206  1.0000
  C   C2857     1.0  0.29612  0.34078  0.70786  1.0000
  C   C2858     1.0  0.32982  0.36744  0.70331  1.0000
  C   C2859     1.0  0.23781  0.39282  0.74024  1.0000
  C   C2860     1.0  0.32872  0.39245  0.78189  1.0000
  C   C2861     1.0  0.36299  0.34686  0.78197  1.0000
  C   C2862     1.0  0.37940  0.36523  0.78386  1.0000
  C   C2863     1.0  0.36021  0.39785  0.68466  1.0000
  C   C2864     1.0  0.37267  0.36136  0.75651  1.0000
  C   C2865     1.0  0.32154  0.35136  0.80258  1.0000
  C   C2866     1.0  0.32735  0.36973  0.82509  1.0000
  C   C2867     1.0  0.26987  0.34880  0.84415  1.0000
  C   C2868     1.0  0.29357  0.38372  0.89512  1.0000
  C   C2869     1.0  0.34120  0.35092  0.80074  1.0000
  C   C2870     1.0  0.35000  0.37590  0.88533  1.0000
  C   C2871     1.0  0.36144  0.35812  0.80552  1.0000
  C   C2872     1.0  0.40734  0.40017  0.83758  1.0000
  C   C2873     1.0  0.29664  0.31992  0.89075  1.0000
  C   C2874     1.0  0.31733  0.36013  0.91925  1.0000
  C   C2875     1.0  0.30204  0.36567  0.93420  1.0000
  C   C2876     1.0  0.32460  0.36688  0.93716  1.0000
  C   C2877     1.0  0.34769  0.35505  0.92586  1.0000
  C   C2878     1.0  0.38979  0.38117  0.96116  1.0000
  C   C2879     1.0  0.31601  0.36373  0.90972  1.0000
  C   C2880     1.0  0.38748  0.38931  0.91454  1.0000
  C   C2881     1.0  0.31225  0.39338  0.00052  1.0000
  C   C2882     1.0  0.32957  0.44249  0.02279  1.0000
  C   C2883     1.0  0.29977  0.43825  0.08700  1.0000
  C   C2884     1.0  0.30585  0.46408  0.06075  1.0000
  C   C2885     1.0  0.32805  0.39820  0.01577  1.0000
  C   C2886     1.0  0.35212  0.41951  0.07735  1.0000
  C   C2887     1.0  0.35215  0.45304  0.95643  1.0000
  C   C2888     1.0  0.37609  0.45727  0.04284  1.0000
  C   C2889     1.0  0.28774  0.41045  0.07901  1.0000
  C   C2890     1.0  0.32139  0.43149  0.12241  1.0000
  C   C2891     1.0  0.30348  0.45055  0.12200  1.0000
  C   C2892     1.0  0.32765  0.44737  0.16753  1.0000
  C   C2893     1.0  0.33570  0.40009  0.14544  1.0000
  C   C2894     1.0  0.39211  0.41268  0.20453  1.0000
  C   C2895     1.0  0.34559  0.44278  0.11962  1.0000
  C   C2896     1.0  0.36973  0.45860  0.10054  1.0000
  C   C2897     1.0  0.28419  0.39817  0.22408  1.0000
  C   C2898     1.0  0.32003  0.40314  0.23657  1.0000
  C   C2899     1.0  0.31008  0.42637  0.24933  1.0000
  C   C2900     1.0  0.31304  0.46383  0.28067  1.0000
  C   C2901     1.0  0.35500  0.39216  0.27407  1.0000
  C   C2902     1.0  0.36888  0.38914  0.31171  1.0000
  C   C2903     1.0  0.37126  0.43266  0.13774  1.0000
  C   C2904     1.0  0.39904  0.43368  0.17958  1.0000
  C   C2905     1.0  0.23120  0.42368  0.31856  1.0000
  C   C2906     1.0  0.35472  0.40830  0.36128  1.0000
  C   C2907     1.0  0.32081  0.42994  0.32581  1.0000
  C   C2908     1.0  0.35068  0.45449  0.38758  1.0000
  C   C2909     1.0  0.34063  0.40071  0.34864  1.0000
  C   C2910     1.0  0.36841  0.42784  0.39020  1.0000
  C   C2911     1.0  0.30217  0.43225  0.30244  1.0000
  C   C2912     1.0  0.38239  0.46017  0.32863  1.0000
  C   C2913     1.0  0.29028  0.40342  0.38477  1.0000
  C   C2914     1.0  0.30923  0.40736  0.39903  1.0000
  C   C2915     1.0  0.34166  0.45840  0.49107  1.0000
  C   C2916     1.0  0.36771  0.44531  0.43945  1.0000
  C   C2917     1.0  0.33129  0.38022  0.46872  1.0000
  C   C2918     1.0  0.38018  0.42611  0.47166  1.0000
  C   C2919     1.0  0.31804  0.41955  0.39060  1.0000
  C   C2920     1.0  0.38539  0.43413  0.41409  1.0000
  C   C2921     1.0  0.34176  0.42696  0.50768  1.0000
  C   C2922     1.0  0.35931  0.41084  0.46010  1.0000
  C   C2923     1.0  0.32711  0.43289  0.56309  1.0000
  C   C2924     1.0  0.31287  0.44812  0.57551  1.0000
  C   C2925     1.0  0.32799  0.38953  0.52235  1.0000
  C   C2926     1.0  0.38319  0.39504  0.60357  1.0000
  C   C2927     1.0  0.36953  0.41171  0.49002  1.0000
  C   C2928     1.0  0.36746  0.46534  0.52275  1.0000
  C   C2929     1.0  0.27903  0.40559  0.62167  1.0000
  C   C2930     1.0  0.32222  0.41596  0.63112  1.0000
  C   C2931     1.0  0.35165  0.42147  0.68029  1.0000
  C   C2932     1.0  0.31595  0.44587  0.69904  1.0000
  C   C2933     1.0  0.38036  0.41186  0.65405  1.0000
  C   C2934     1.0  0.33674  0.43425  0.67899  1.0000
  C   C2935     1.0  0.34785  0.42359  0.62340  1.0000
  C   C2936     1.0  0.37508  0.44029  0.63467  1.0000
  C   C2937     1.0  0.29848  0.41610  0.70405  1.0000
  C   C2938     1.0  0.34155  0.43031  0.73644  1.0000
  C   C2939     1.0  0.28949  0.43241  0.73538  1.0000
  C   C2940     1.0  0.32952  0.45504  0.77297  1.0000
  C   C2941     1.0  0.34116  0.39655  0.75047  1.0000
  C   C2942     1.0  0.36226  0.41498  0.76719  1.0000
  C   C2943     1.0  0.36378  0.42957  0.73791  1.0000
  C   C2944     1.0  0.37301  0.44845  0.71156  1.0000
  C   C2945     1.0  0.27494  0.38126  0.80017  1.0000
  C   C2946     1.0  0.33605  0.42716  0.84691  1.0000
  C   C2947     1.0  0.29284  0.41752  0.83355  1.0000
  C   C2948     1.0  0.37099  0.44332  0.89247  1.0000
  C   C2949     1.0  0.33335  0.39328  0.87473  1.0000
  C   C2950     1.0  0.38021  0.41614  0.88807  1.0000
  C   C2951     1.0  0.38207  0.45329  0.81192  1.0000
  C   C2952     1.0  0.39367  0.46586  0.82356  1.0000
  C   C2953     1.0  0.30874  0.39345  0.91637  1.0000
  C   C2954     1.0  0.34169  0.42205  0.94910  1.0000
  C   C2955     1.0  0.30659  0.43709  0.94989  1.0000
  C   C2956     1.0  0.32185  0.46708  0.97526  1.0000
  C   C2957     1.0  0.37595  0.42769  0.94299  1.0000
  C   C2958     1.0  0.40070  0.41753  0.00835  1.0000
  C   C2959     1.0  0.36977  0.44585  0.90360  1.0000
  C   C2960     1.0  0.34658  0.46212  0.94385  1.0000
  C   C2961     1.0  0.28187  0.44477  0.95552  1.0000
  C   C2962     1.0  0.29518  0.46830  0.00683  1.0000
  C   C2963     1.0  0.30554  0.47265  0.01024  1.0000
  C   C2964     1.0  0.32539  0.49656  0.08168  1.0000
  C   C2965     1.0  0.35588  0.45984  0.05000  1.0000
  C   C2966     1.0  0.36738  0.47372  0.06099  1.0000
  C   C2967     1.0  0.35642  0.48077  0.02109  1.0000
  C   C2968     1.0  0.40761  0.51759  0.98729  1.0000
  C   C2969     1.0  0.30579  0.46101  0.07390  1.0000
  C   C2970     1.0  0.33209  0.49179  0.11229  1.0000
  C   C2971     1.0  0.26925  0.48951  0.18586  1.0000
  C   C2972     1.0  0.30617  0.47982  0.18088  1.0000
  C   C2973     1.0  0.32820  0.46806  0.14610  1.0000
  C   C2974     1.0  0.39844  0.47502  0.19704  1.0000
  C   C2975     1.0  0.35222  0.50491  0.05354  1.0000
  C   C2976     1.0  0.35643  0.53250  0.11561  1.0000
  C   C2977     1.0  0.26464  0.46944  0.18667  1.0000
  C   C2978     1.0  0.30931  0.47064  0.20639  1.0000
  C   C2979     1.0  0.27579  0.49623  0.27063  1.0000
  C   C2980     1.0  0.38810  0.50334  0.28556  1.0000
  C   C2981     1.0  0.39526  0.45473  0.26367  1.0000
  C   C2982     1.0  0.35760  0.50885  0.24028  1.0000
  C   C2983     1.0  0.39285  0.48174  0.20405  1.0000
  C   C2984     1.0  0.37414  0.51552  0.23753  1.0000
  C   C2985     1.0  0.28160  0.47030  0.30059  1.0000
  C   C2986     1.0  0.32606  0.48886  0.32472  1.0000
  C   C2987     1.0  0.30332  0.49525  0.41080  1.0000
  C   C2988     1.0  0.35518  0.50230  0.34798  1.0000
  C   C2989     1.0  0.36933  0.47120  0.33016  1.0000
  C   C2990     1.0  0.42500  0.47558  0.38384  1.0000
  C   C2991     1.0  0.34714  0.49923  0.33720  1.0000
  C   C2992     1.0  0.34817  0.47501  0.29667  1.0000
  C   C2993     1.0  0.26727  0.47464  0.37528  1.0000
  C   C2994     1.0  0.31013  0.47762  0.44629  1.0000
  C   C2995     1.0  0.32254  0.49182  0.46831  1.0000
  C   C2996     1.0  0.32104  0.52447  0.46842  1.0000
  C   C2997     1.0  0.29200  0.45294  0.42349  1.0000
  C   C2998     1.0  0.38532  0.50070  0.47654  1.0000
  C   C2999     1.0  0.32556  0.51941  0.39636  1.0000
  C   C3000     1.0  0.39388  0.51028  0.40190  1.0000
  C   C3001     1.0  0.29833  0.46058  0.51093  1.0000
  C   C3002     1.0  0.31485  0.48189  0.52548  1.0000
  C   C3003     1.0  0.28815  0.49765  0.56162  1.0000
  C   C3004     1.0  0.29303  0.49342  0.57412  1.0000
  C   C3005     1.0  0.40860  0.47126  0.52254  1.0000
  C   C3006     1.0  0.37204  0.47561  0.60935  1.0000
  C   C3007     1.0  0.33005  0.50809  0.47688  1.0000
  C   C3008     1.0  0.39723  0.52205  0.52729  1.0000
  C   C3009     1.0  0.29328  0.44187  0.61527  1.0000
  C   C3010     1.0  0.35362  0.48474  0.63477  1.0000
  C   C3011     1.0  0.27428  0.50190  0.66264  1.0000
  C   C3012     1.0  0.32227  0.51552  0.67493  1.0000
  C   C3013     1.0  0.33140  0.45023  0.64861  1.0000
  C   C3014     1.0  0.30093  0.45902  0.67635  1.0000
  C   C3015     1.0  0.35081  0.47469  0.60618  1.0000
  C   C3016     1.0  0.38601  0.51948  0.63280  1.0000
  C   C3017     1.0  0.29950  0.45642  0.71448  1.0000
  C   C3018     1.0  0.33845  0.48341  0.73259  1.0000
  C   C3019     1.0  0.34565  0.49621  0.73407  1.0000
  C   C3020     1.0  0.32236  0.48796  0.76922  1.0000
  C   C3021     1.0  0.35518  0.44974  0.75811  1.0000
  C   C3022     1.0  0.33661  0.46783  0.76475  1.0000
  C   C3023     1.0  0.36524  0.49854  0.70604  1.0000
  C   C3024     1.0  0.37944  0.51655  0.72464  1.0000
  C   C3025     1.0  0.27924  0.47973  0.76605  1.0000
  C   C3026     1.0  0.32359  0.48142  0.86686  1.0000
  C   C3027     1.0  0.33478  0.49328  0.86613  1.0000
  C   C3028     1.0  0.34049  0.52726  0.87130  1.0000
  C   C3029     1.0  0.37439  0.45758  0.85650  1.0000
  C   C3030     1.0  0.40032  0.46142  0.87132  1.0000
  C   C3031     1.0  0.34217  0.49814  0.78780  1.0000
  C   C3032     1.0  0.39727  0.49570  0.83067  1.0000
  C   C3033     1.0  0.27505  0.44905  0.90119  1.0000
  C   C3034     1.0  0.32747  0.47672  0.94420  1.0000
  C   C3035     1.0  0.25053  0.48438  0.93856  1.0000
  C   C3036     1.0  0.34539  0.49809  0.99053  1.0000
  C   C3037     1.0  0.29848  0.45188  0.90796  1.0000
  C   C3038     1.0  0.38766  0.45870  0.99648  1.0000
  C   C3039     1.0  0.35091  0.47377  0.87650  1.0000
  C   C3040     1.0  0.38030  0.52283  0.89759  1.0000
  C   C3041     1.0  0.30614  0.51758  0.96883  1.0000
  C   C3042     1.0  0.31420  0.53492  0.04200  1.0000
  C   C3043     1.0  0.31184  0.54676  0.07314  1.0000
  C   C3044     1.0  0.32792  0.54992  0.08173  1.0000
  C   C3045     1.0  0.37484  0.53164  0.07756  1.0000
  C   C3046     1.0  0.34890  0.53137  0.08446  1.0000
  C   C3047     1.0  0.36812  0.55723  0.02918  1.0000
  C   C3048     1.0  0.35864  0.57734  0.04812  1.0000
  C   C3049     1.0  0.30735  0.51222  0.05517  1.0000
  C   C3050     1.0  0.29526  0.52833  0.13523  1.0000
  C   C3051     1.0  0.33781  0.57462  0.15236  1.0000
  C   C3052     1.0  0.32945  0.58168  0.18709  1.0000
  C   C3053     1.0  0.33944  0.53430  0.16054  1.0000
  C   C3054     1.0  0.36330  0.55770  0.15208  1.0000
  C   C3055     1.0  0.30712  0.55304  0.06399  1.0000
  C   C3056     1.0  0.38374  0.55794  0.10715  1.0000
  C   C3057     1.0  0.28740  0.51940  0.22336  1.0000
  C   C3058     1.0  0.29329  0.52319  0.23569  1.0000
  C   C3059     1.0  0.31464  0.56125  0.26076  1.0000
  C   C3060     1.0  0.32519  0.57754  0.28585  1.0000
  C   C3061     1.0  0.32697  0.54540  0.24772  1.0000
  C   C3062     1.0  0.36135  0.52793  0.28827  1.0000
  C   C3063     1.0  0.32343  0.55148  0.19204  1.0000
  C   C3064     1.0  0.40489  0.57999  0.22999  1.0000
  C   C3065     1.0  0.37801  0.52550  0.27922  1.0000
  C   C3066     1.0  0.29921  0.53868  0.31968  1.0000
  C   C3067     1.0  0.30091  0.55459  0.39629  1.0000
  C   C3068     1.0  0.31147  0.58763  0.36186  1.0000
  C   C3069     1.0  0.33575  0.52976  0.36723  1.0000
  C   C3070     1.0  0.33577  0.57392  0.39554  1.0000
  C   C3071     1.0  0.35412  0.57950  0.32902  1.0000
  C   C3072     1.0  0.37698  0.54555  0.31525  1.0000
  C   C3073     1.0  0.31232  0.55329  0.37126  1.0000
  C   C3074     1.0  0.34254  0.53903  0.43043  1.0000
  C   C3075     1.0  0.33211  0.56672  0.43321  1.0000
  C   C3076     1.0  0.33617  0.56515  0.44902  1.0000
  C   C3077     1.0  0.35926  0.50371  0.39641  1.0000
  C   C3078     1.0  0.39330  0.52156  0.45610  1.0000
  C   C3079     1.0  0.31639  0.55178  0.39481  1.0000
  C   C3080     1.0  0.33916  0.57044  0.40776  1.0000
  C   C3081     1.0  0.30455  0.52219  0.51410  1.0000
  C   C3082     1.0  0.35244  0.54524  0.52433  1.0000
  C   C3083     1.0  0.30286  0.55141  0.58781  1.0000
  C   C3084     1.0  0.32388  0.56766  0.58963  1.0000
  C   C3085     1.0  0.34228  0.52733  0.54984  1.0000
  C   C3086     1.0  0.35446  0.53973  0.56899  1.0000
  C   C3087     1.0  0.37008  0.57658  0.47877  1.0000
  C   C3088     1.0  0.38700  0.58197  0.50897  1.0000
  C   C3089     1.0  0.32488  0.48934  0.58329  1.0000
  C   C3090     1.0  0.34574  0.54142  0.61879  1.0000
  C   C3091     1.0  0.32122  0.56169  0.63425  1.0000
  C   C3092     1.0  0.34075  0.56674  0.65836  1.0000
  C   C3093     1.0  0.34537  0.53668  0.62647  1.0000
  C   C3094     1.0  0.36446  0.54679  0.68959  1.0000
  C   C3095     1.0  0.35796  0.53348  0.58840  1.0000
  C   C3096     1.0  0.39285  0.56840  0.61528  1.0000
  C   C3097     1.0  0.29881  0.51016  0.69280  1.0000
  C   C3098     1.0  0.35025  0.51427  0.72033  1.0000
  C   C3099     1.0  0.27630  0.57236  0.76660  1.0000
  C   C3100     1.0  0.30641  0.56399  0.74971  1.0000
  C   C3101     1.0  0.31951  0.54427  0.75539  1.0000
  C   C3102     1.0  0.36755  0.53474  0.76179  1.0000
  C   C3103     1.0  0.35168  0.55739  0.69137  1.0000
  C   C3104     1.0  0.38571  0.59040  0.72545  1.0000
  C   C3105     1.0  0.30894  0.51115  0.76986  1.0000
  C   C3106     1.0  0.33608  0.55181  0.84075  1.0000
  C   C3107     1.0  0.31275  0.53687  0.86350  1.0000
  C   C3108     1.0  0.35199  0.58538  0.87004  1.0000
  C   C3109     1.0  0.33034  0.49930  0.88766  1.0000
  C   C3110     1.0  0.37217  0.54036  0.85588  1.0000
  C   C3111     1.0  0.33838  0.54021  0.82743  1.0000
  C   C3112     1.0  0.36254  0.55711  0.83930  1.0000
  C   C3113     1.0  0.29860  0.52971  0.89712  1.0000
  C   C3114     1.0  0.32851  0.52436  0.93546  1.0000
  C   C3115     1.0  0.25309  0.57831  0.89952  1.0000
  C   C3116     1.0  0.31947  0.56521  0.96561  1.0000
  C   C3117     1.0  0.34350  0.53339  0.96136  1.0000
  C   C3118     1.0  0.35735  0.54277  0.01526  1.0000
  C   C3119     1.0  0.32798  0.55654  0.89466  1.0000
  C   C3120     1.0  0.36424  0.59062  0.93574  1.0000
  C   C3121     1.0  0.27654  0.58657  0.00386  1.0000
  C   C3122     1.0  0.32928  0.60316  0.01291  1.0000
  C   C3123     1.0  0.31190  0.61782  0.06138  1.0000
  C   C3124     1.0  0.31881  0.64376  0.07478  1.0000
  C   C3125     1.0  0.33836  0.59941  0.05153  1.0000
  C   C3126     1.0  0.37997  0.60987  0.11281  1.0000
  C   C3127     1.0  0.35356  0.62709  0.99730  1.0000
  C   C3128     1.0  0.32224  0.63576  0.01089  1.0000
  C   C3129     1.0  0.27657  0.58214  0.12176  1.0000
  C   C3130     1.0  0.31117  0.60685  0.13245  1.0000
  C   C3131     1.0  0.32331  0.59833  0.14302  1.0000
  C   C3132     1.0  0.32867  0.62683  0.16326  1.0000
  C   C3133     1.0  0.35246  0.57499  0.13571  1.0000
  C   C3134     1.0  0.36930  0.60207  0.19913  1.0000
  C   C3135     1.0  0.33175  0.61148  0.08014  1.0000
  C   C3136     1.0  0.40078  0.04201  0.10370  1.0000
  C   C3137     1.0  0.31681  0.57037  0.20921  1.0000
  C   C3138     1.0  0.33943  0.60744  0.20652  1.0000
  C   C3139     1.0  0.28344  0.62113  0.25821  1.0000
  C   C3140     1.0  0.26711  0.62710  0.27907  1.0000
  C   C3141     1.0  0.35998  0.57413  0.26343  1.0000
  C   C3142     1.0  0.38240  0.60554  0.31153  1.0000
  C   C3143     1.0  0.31828  0.60738  0.21452  1.0000
  C   C3144     1.0  0.35554  0.63957  0.23623  1.0000
  C   C3145     1.0  0.27270  0.58498  0.32017  1.0000
  C   C3146     1.0  0.31059  0.61293  0.31735  1.0000
  C   C3147     1.0  0.31033  0.63885  0.34743  1.0000
  C   C3148     1.0  0.31737  0.60421  0.37168  1.0000
  C   C3149     1.0  0.31465  0.58793  0.32216  1.0000
  C   C3150     1.0  0.35596  0.60928  0.36527  1.0000
  C   C3151     1.0  0.32975  0.61869  0.28823  1.0000
  C   C3152     1.0  0.37444  0.63058  0.30026  1.0000
  C   C3153     1.0  0.30404  0.60666  0.37986  1.0000
  C   C3154     1.0  0.34733  0.59860  0.43888  1.0000
  C   C3155     1.0  0.28311  0.61748  0.43107  1.0000
  C   C3156     1.0  0.33317  0.60662  0.48604  1.0000
  C   C3157     1.0  0.39292  0.61994  0.43953  1.0000
  C   C3158     1.0  0.39753  0.58086  0.49844  1.0000
  C   C3159     1.0  0.35298  0.62818  0.40314  1.0000
  C   C3160     1.0  0.40930  0.63367  0.41346  1.0000
  C   C3161     1.0  0.25892  0.60255  0.51366  1.0000
  C   C3162     1.0  0.37095  0.60683  0.53452  1.0000
  C   C3163     1.0  0.29824  0.61338  0.52957  1.0000
  C   C3164     1.0  0.31282  0.62729  0.54545  1.0000
  C   C3165     1.0  0.33667  0.57883  0.58238  1.0000
  C   C3166     1.0  0.38129  0.57580  0.52621  1.0000
  C   C3167     1.0  0.35619  0.62635  0.48562  1.0000
  C   C3168     1.0  0.33817  0.63059  0.52611  1.0000
  C   C3169     1.0  0.31742  0.58805  0.58115  1.0000
  C   C3170     1.0  0.36617  0.56029  0.59963  1.0000
  C   C3171     1.0  0.31985  0.60442  0.64198  1.0000
  C   C3172     1.0  0.31306  0.61522  0.66140  1.0000
  C   C3173     1.0  0.36536  0.55953  0.65317  1.0000
  C   C3174     1.0  0.37042  0.59606  0.68264  1.0000
  C   C3175     1.0  0.37129  0.60052  0.59898  1.0000
  C   C3176     1.0  0.37611  0.60312  0.63856  1.0000
  C   C3177     1.0  0.28263  0.57266  0.74272  1.0000
  C   C3178     1.0  0.34421  0.61689  0.71111  1.0000
  C   C3179     1.0  0.29679  0.60966  0.76402  1.0000
  C   C3180     1.0  0.28374  0.63502  0.77350  1.0000
  C   C3181     1.0  0.36421  0.59750  0.74707  1.0000
  C   C3182     1.0  0.35461  0.59972  0.76205  1.0000
  C   C3183     1.0  0.32768  0.63969  0.66678  1.0000
  C   C3184     1.0  0.38348  0.63658  0.71273  1.0000
  C   C3185     1.0  0.30973  0.58042  0.80205  1.0000
  C   C3186     1.0  0.31543  0.60106  0.83722  1.0000
  C   C3187     1.0  0.34044  0.60752  0.83453  1.0000
  C   C3188     1.0  0.34248  0.62312  0.87096  1.0000
  C   C3189     1.0  0.36344  0.59721  0.83574  1.0000
  C   C3190     1.0  0.37447  0.61232  0.88332  1.0000
  C   C3191     1.0  0.31838  0.62636  0.81436  1.0000
  C   C3192     1.0  0.34903  0.60476  0.83249  1.0000
  C   C3193     1.0  0.31958  0.59849  0.91308  1.0000
  C   C3194     1.0  0.32336  0.60970  0.92323  1.0000
  C   C3195     1.0  0.31448  0.60567  0.95089  1.0000
  C   C3196     1.0  0.33250  0.59367  0.96162  1.0000
  C   C3197     1.0  0.34336  0.55954  0.94625  1.0000
  C   C3198     1.0  0.35793  0.60817  0.00240  1.0000
  C   C3199     1.0  0.35417  0.61974  0.89916  1.0000
  C   C3200     1.0  0.40540  0.64206  0.88370  1.0000
  C   C3201     1.0  0.44907  0.04541  0.99812  1.0000
  C   C3202     1.0  0.43463  0.04415  0.03060  1.0000
  C   C3203     1.0  0.38627  0.06477  0.06234  1.0000
  C   C3204     1.0  0.43964  0.09263  0.06932  1.0000
  C   C3205     1.0  0.47339  0.64667  0.06891  1.0000
  C   C3206     1.0  0.49669  0.64288  0.05772  1.0000
  C   C3207     1.0  0.42830  0.06733  0.96799  1.0000
  C   C3208     1.0  0.49618  0.08193  0.01186  1.0000
  C   C3209     1.0  0.40097  0.63702  0.09594  1.0000
  C   C3210     1.0  0.39281  0.03775  0.13379  1.0000
  C   C3211     1.0  0.37571  0.06778  0.13799  1.0000
  C   C3212     1.0  0.41600  0.09095  0.19992  1.0000
  C   C3213     1.0  0.46457  0.64396  0.17325  1.0000
  C   C3214     1.0  0.45390  0.05420  0.15400  1.0000
  C   C3215     1.0  0.48888  0.05123  0.10138  1.0000
  C   C3216     1.0  0.50364  0.07277  0.11590  1.0000
  C   C3217     1.0  0.35912  0.64388  0.24205  1.0000
  C   C3218     1.0  0.43980  0.64469  0.20623  1.0000
  C   C3219     1.0  0.40642  0.05849  0.25544  1.0000
  C   C3220     1.0  0.45938  0.05460  0.26572  1.0000
  C   C3221     1.0  0.46965  0.04089  0.25632  1.0000
  C   C3222     1.0  0.45070  0.05564  0.29168  1.0000
  C   C3223     1.0  0.38545  0.05306  0.22301  1.0000
  C   C3224     1.0  0.44262  0.09202  0.22409  1.0000
  C   C3225     1.0  0.41730  0.64510  0.26932  1.0000
  C   C3226     1.0  0.41108  0.64671  0.33951  1.0000
  C   C3227     1.0  0.38892  0.04992  0.34412  1.0000
  C   C3228     1.0  0.40880  0.06912  0.37468  1.0000
  C   C3229     1.0  0.44386  0.63875  0.34719  1.0000
  C   C3230     1.0  0.47905  0.04501  0.33875  1.0000
  C   C3231     1.0  0.39736  0.04444  0.31139  1.0000
  C   C3232     1.0  0.48948  0.07990  0.34092  1.0000
  C   C3233     1.0  0.40455  0.05048  0.36304  1.0000
  C   C3234     1.0  0.44456  0.04718  0.43783  1.0000
  C   C3235     1.0  0.38820  0.05747  0.45389  1.0000
  C   C3236     1.0  0.40854  0.08588  0.46201  1.0000
  C   C3237     1.0  0.42637  0.04901  0.44418  1.0000
  C   C3238     1.0  0.49954  0.05808  0.48200  1.0000
  C   C3239     1.0  0.47378  0.06611  0.40675  1.0000
  C   C3240     1.0  0.46899  0.09008  0.43133  1.0000
  C   C3241     1.0  0.40460  0.04406  0.48193  1.0000
  C   C3242     1.0  0.45811  0.04303  0.51699  1.0000
  C   C3243     1.0  0.38150  0.05165  0.55901  1.0000
  C   C3244     1.0  0.38935  0.08524  0.57211  1.0000
  C   C3245     1.0  0.45090  0.62274  0.58603  1.0000
  C   C3246     1.0  0.49646  0.03935  0.59763  1.0000
  C   C3247     1.0  0.44699  0.03762  0.50157  1.0000
  C   C3248     1.0  0.47851  0.04707  0.52999  1.0000
  C   C3249     1.0  0.42005  0.04108  0.59601  1.0000
  C   C3250     1.0  0.45362  0.05545  0.61658  1.0000
  C   C3251     1.0  0.43682  0.03825  0.67859  1.0000
  C   C3252     1.0  0.43363  0.06691  0.67798  1.0000
  C   C3253     1.0  0.43922  0.03457  0.60861  1.0000
  C   C3254     1.0  0.50036  0.05426  0.66147  1.0000
  C   C3255     1.0  0.44009  0.06390  0.59792  1.0000
  C   C3256     1.0  0.47499  0.08091  0.63092  1.0000
  C   C3257     1.0  0.42919  0.63589  0.68496  1.0000
  C   C3258     1.0  0.42382  0.05381  0.72843  1.0000
  C   C3259     1.0  0.41873  0.06696  0.76540  1.0000
  C   C3260     1.0  0.45052  0.06688  0.77513  1.0000
  C   C3261     1.0  0.46896  0.64560  0.75764  1.0000
  C   C3262     1.0  0.46029  0.05891  0.73828  1.0000
  C   C3263     1.0  0.42181  0.09038  0.68763  1.0000
  C   C3264     1.0  0.47979  0.07749  0.69949  1.0000
  C   C3265     1.0  0.41150  0.63670  0.82749  1.0000
  C   C3266     1.0  0.43226  0.03810  0.81475  1.0000
  C   C3267     1.0  0.39097  0.07764  0.88186  1.0000
  C   C3268     1.0  0.47747  0.08405  0.84547  1.0000
  C   C3269     1.0  0.42403  0.04276  0.85335  1.0000
  C   C3270     1.0  0.46067  0.64288  0.84690  1.0000
  C   C3271     1.0  0.45416  0.05240  0.80387  1.0000
  C   C3272     1.0  0.45204  0.05322  0.83024  1.0000
  C   C3273     1.0  0.43431  0.04234  0.89142  1.0000
  C   C3274     1.0  0.43904  0.06050  0.92099  1.0000
  C   C3275     1.0  0.37267  0.06101  0.95599  1.0000
  C   C3276     1.0  0.40519  0.08245  0.00308  1.0000
  C   C3277     1.0  0.43478  0.63775  0.94756  1.0000
  C   C3278     1.0  0.47375  0.05197  0.96192  1.0000
  C   C3279     1.0  0.42344  0.05043  0.86955  1.0000
  C   C3280     1.0  0.46636  0.10732  0.93312  1.0000
  C   C3281     1.0  0.40742  0.09509  0.98555  1.0000
  C   C3282     1.0  0.45301  0.11136  0.02659  1.0000
  C   C3283     1.0  0.40067  0.13019  0.05868  1.0000
  C   C3284     1.0  0.42845  0.14714  0.05022  1.0000
  C   C3285     1.0  0.44084  0.10633  0.07302  1.0000
  C   C3286     1.0  0.48481  0.11899  0.05221  1.0000
  C   C3287     1.0  0.44719  0.12180  0.01876  1.0000
  C   C3288     1.0  0.47164  0.11456  0.00458  1.0000
  C   C3289     1.0  0.38660  0.10648  0.12701  1.0000
  C   C3290     1.0  0.43176  0.13491  0.14726  1.0000
  C   C3291     1.0  0.39235  0.12572  0.12338  1.0000
  C   C3292     1.0  0.47047  0.11387  0.16094  1.0000
  C   C3293     1.0  0.46559  0.08527  0.14141  1.0000
  C   C3294     1.0  0.45416  0.11148  0.15529  1.0000
  C   C3295     1.0  0.47142  0.12157  0.13216  1.0000
  C   C3296     1.0  0.48250  0.14575  0.14190  1.0000
  C   C3297     1.0  0.42775  0.09008  0.18705  1.0000
  C   C3298     1.0  0.37762  0.10923  0.21955  1.0000
  C   C3299     1.0  0.39682  0.12449  0.29573  1.0000
  C   C3300     1.0  0.39425  0.11948  0.24864  1.0000
  C   C3301     1.0  0.43803  0.10043  0.23766  1.0000
  C   C3302     1.0  0.46564  0.08179  0.28232  1.0000
  C   C3303     1.0  0.42738  0.14366  0.20785  1.0000
  C   C3304     1.0  0.45749  0.13274  0.20555  1.0000
  C   C3305     1.0  0.41000  0.10929  0.31161  1.0000
  C   C3306     1.0  0.42112  0.11612  0.31060  1.0000
  C   C3307     1.0  0.39483  0.12279  0.38821  1.0000
  C   C3308     1.0  0.42519  0.15668  0.39264  1.0000
  C   C3309     1.0  0.42068  0.11080  0.33662  1.0000
  C   C3310     1.0  0.46246  0.10054  0.38464  1.0000
  C   C3311     1.0  0.45041  0.13292  0.35964  1.0000
  C   C3312     1.0  0.45254  0.12410  0.32774  1.0000
  C   C3313     1.0  0.41452  0.08337  0.41443  1.0000
  C   C3314     1.0  0.40305  0.11209  0.45200  1.0000
  C   C3315     1.0  0.43695  0.13807  0.44168  1.0000
  C   C3316     1.0  0.44062  0.13670  0.45327  1.0000
  C   C3317     1.0  0.42390  0.07698  0.45228  1.0000
  C   C3318     1.0  0.48301  0.07430  0.44800  1.0000
  C   C3319     1.0  0.45133  0.13345  0.38626  1.0000
  C   C3320     1.0  0.49544  0.14358  0.42458  1.0000
  C   C3321     1.0  0.42890  0.09634  0.47302  1.0000
  C   C3322     1.0  0.38191  0.10444  0.54017  1.0000
  C   C3323     1.0  0.41100  0.13076  0.55810  1.0000
  C   C3324     1.0  0.41495  0.13444  0.58024  1.0000
  C   C3325     1.0  0.46676  0.10891  0.53679  1.0000
  C   C3326     1.0  0.43176  0.09049  0.59324  1.0000
  C   C3327     1.0  0.47114  0.13772  0.51261  1.0000
  C   C3328     1.0  0.47513  0.13821  0.51370  1.0000
  C   C3329     1.0  0.39957  0.07753  0.59341  1.0000
  C   C3330     1.0  0.43033  0.12808  0.62553  1.0000
  C   C3331     1.0  0.38531  0.13643  0.63064  1.0000
  C   C3332     1.0  0.46008  0.13419  0.67573  1.0000
  C   C3333     1.0  0.45112  0.10181  0.61559  1.0000
  C   C3334     1.0  0.49253  0.10458  0.65205  1.0000
  C   C3335     1.0  0.43402  0.12255  0.60751  1.0000
  C   C3336     1.0  0.46076  0.15432  0.63985  1.0000
  C   C3337     1.0  0.43173  0.08289  0.68969  1.0000
  C   C3338     1.0  0.42576  0.11717  0.74867  1.0000
  C   C3339     1.0  0.42616  0.12848  0.80516  1.0000
  C   C3340     1.0  0.43960  0.14799  0.76186  1.0000
  C   C3341     1.0  0.41148  0.09669  0.74919  1.0000
  C   C3342     1.0  0.48492  0.11149  0.78377  1.0000
  C   C3343     1.0  0.42803  0.11954  0.68866  1.0000
  C   C3344     1.0  0.49710  0.15594  0.74040  1.0000
  C   C3345     1.0  0.44100  0.09699  0.77293  1.0000
  C   C3346     1.0  0.41552  0.13113  0.81204  1.0000
  C   C3347     1.0  0.43047  0.10447  0.84952  1.0000
  C   C3348     1.0  0.44615  0.13934  0.87607  1.0000
  C   C3349     1.0  0.43024  0.09734  0.84201  1.0000
  C   C3350     1.0  0.46366  0.09106  0.91356  1.0000
  C   C3351     1.0  0.48251  0.13516  0.79617  1.0000
  C   C3352     1.0  0.49180  0.12734  0.84941  1.0000
  C   C3353     1.0  0.38214  0.07694  0.95099  1.0000
  C   C3354     1.0  0.41618  0.09222  0.94485  1.0000
  C   C3355     1.0  0.43299  0.13835  0.94737  1.0000
  C   C3356     1.0  0.38127  0.14209  0.95458  1.0000
  C   C3357     1.0  0.44353  0.08883  0.96648  1.0000
  C   C3358     1.0  0.42023  0.11347  0.97808  1.0000
  C   C3359     1.0  0.46497  0.11757  0.88794  1.0000
  C   C3360     1.0  0.45350  0.12106  0.89795  1.0000
  C   C3361     1.0  0.39586  0.15241  0.98369  1.0000
  C   C3362     1.0  0.42596  0.18896  0.99082  1.0000
  C   C3363     1.0  0.44494  0.19037  0.04199  1.0000
  C   C3364     1.0  0.40113  0.19566  0.08722  1.0000
  C   C3365     1.0  0.46036  0.12760  0.06550  1.0000
  C   C3366     1.0  0.44955  0.18731  0.09066  1.0000
  C   C3367     1.0  0.42727  0.18830  0.97671  1.0000
  C   C3368     1.0  0.44086  0.19755  0.01428  1.0000
  C   C3369     1.0  0.41210  0.13469  0.11917  1.0000
  C   C3370     1.0  0.42249  0.17835  0.11346  1.0000
  C   C3371     1.0  0.37615  0.19353  0.16932  1.0000
  C   C3372     1.0  0.40793  0.20295  0.16685  1.0000
  C   C3373     1.0  0.44577  0.14298  0.14553  1.0000
  C   C3374     1.0  0.43208  0.18051  0.18107  1.0000
  C   C3375     1.0  0.44952  0.18158  0.10119  1.0000
  C   C3376     1.0  0.45907  0.17976  0.10519  1.0000
  C   C3377     1.0  0.35265  0.16134  0.22309  1.0000
  C   C3378     1.0  0.42059  0.17734  0.20905  1.0000
  C   C3379     1.0  0.41367  0.19322  0.25468  1.0000
  C   C3380     1.0  0.41558  0.19282  0.28699  1.0000
  C   C3381     1.0  0.45816  0.14900  0.21363  1.0000
  C   C3382     1.0  0.49658  0.18780  0.27252  1.0000
  C   C3383     1.0  0.47440  0.18926  0.19858  1.0000
  C   C3384     1.0  0.47650  0.18571  0.25456  1.0000
  C   C3385     1.0  0.42739  0.14925  0.33962  1.0000
  C   C3386     1.0  0.40720  0.15925  0.32269  1.0000
  C   C3387     1.0  0.41608  0.20366  0.35821  1.0000
  C   C3388     1.0  0.41311  0.21511  0.34636  1.0000
  C   C3389     1.0  0.43657  0.15929  0.33538  1.0000
  C   C3390     1.0  0.45854  0.16340  0.38234  1.0000
  C   C3391     1.0  0.48497  0.17385  0.29028  1.0000
  C   C3392     1.0  0.44044  0.22597  0.30400  1.0000
  C   C3393     1.0  0.39371  0.14386  0.39540  1.0000
  C   C3394     1.0  0.42027  0.18831  0.39957  1.0000
  C   C3395     1.0  0.39787  0.19617  0.46005  1.0000
  C   C3396     1.0  0.42029  0.21897  0.47121  1.0000
  C   C3397     1.0  0.48763  0.17760  0.47006  1.0000
  C   C3398     1.0  0.49393  0.15599  0.47220  1.0000
  C   C3399     1.0  0.46892  0.18525  0.41062  1.0000
  C   C3400     1.0  0.48106  0.17693  0.43217  1.0000
  C   C3401     1.0  0.35589  0.14401  0.51037  1.0000
  C   C3402     1.0  0.41775  0.15385  0.55897  1.0000
  C   C3403     1.0  0.39751  0.19894  0.54784  1.0000
  C   C3404     1.0  0.43664  0.20255  0.58567  1.0000
  C   C3405     1.0  0.45660  0.17255  0.55840  1.0000
  C   C3406     1.0  0.49491  0.16000  0.55134  1.0000
  C   C3407     1.0  0.46463  0.19157  0.52774  1.0000
  C   C3408     1.0  0.47074  0.20772  0.53161  1.0000
  C   C3409     1.0  0.38068  0.15110  0.56779  1.0000
  C   C3410     1.0  0.41864  0.16511  0.63438  1.0000
  C   C3411     1.0  0.42212  0.18445  0.59581  1.0000
  C   C3412     1.0  0.39237  0.18500  0.69195  1.0000
  C   C3413     1.0  0.43479  0.16282  0.64840  1.0000
  C   C3414     1.0  0.47704  0.15990  0.64888  1.0000
  C   C3415     1.0  0.48906  0.17931  0.59284  1.0000
  C   C3416     1.0  0.50804  0.22156  0.61897  1.0000
  C   C3417     1.0  0.40251  0.15264  0.70571  1.0000
  C   C3418     1.0  0.45787  0.17255  0.74063  1.0000
  C   C3419     1.0  0.41180  0.19601  0.76770  1.0000
  C   C3420     1.0  0.43635  0.20734  0.77112  1.0000
  C   C3421     1.0  0.42536  0.16057  0.75549  1.0000
  C   C3422     1.0  0.49108  0.15402  0.80578  1.0000
  C   C3423     1.0  0.45923  0.17338  0.67661  1.0000
  C   C3424     1.0  0.49209  0.21658  0.72818  1.0000
  C   C3425     1.0  0.41752  0.16529  0.85243  1.0000
  C   C3426     1.0  0.43264  0.16912  0.82353  1.0000
  C   C3427     1.0  0.39891  0.18686  0.85919  1.0000
  C   C3428     1.0  0.43133  0.21201  0.87342  1.0000
  C   C3429     1.0  0.42995  0.17295  0.83637  1.0000
  C   C3430     1.0  0.48842  0.17285  0.90583  1.0000
  C   C3431     1.0  0.48999  0.17599  0.80118  1.0000
  C   C3432     1.0  0.45041  0.19756  0.84890  1.0000
  C   C3433     1.0  0.40098  0.13659  0.89163  1.0000
  C   C3434     1.0  0.43300  0.15917  0.91152  1.0000
  C   C3435     1.0  0.42881  0.14969  0.94433  1.0000
  C   C3436     1.0  0.40883  0.20311  0.94783  1.0000
  C   C3437     1.0  0.45747  0.16970  0.91889  1.0000
  C   C3438     1.0  0.46632  0.15370  0.00763  1.0000
  C   C3439     1.0  0.48350  0.20635  0.90242  1.0000
  C   C3440     1.0  0.43244  0.20876  0.92371  1.0000
  C   C3441     1.0  0.39709  0.20497  0.98399  1.0000
  C   C3442     1.0  0.44623  0.21569  0.02428  1.0000
  C   C3443     1.0  0.39990  0.25865  0.05112  1.0000
  C   C3444     1.0  0.44009  0.26388  0.04624  1.0000
  C   C3445     1.0  0.46668  0.20446  0.06139  1.0000
  C   C3446     1.0  0.48842  0.24355  0.07154  1.0000
  C   C3447     1.0  0.42634  0.24200  0.02265  1.0000
  C   C3448     1.0  0.47977  0.26945  0.98777  1.0000
  C   C3449     1.0  0.40108  0.23953  0.06681  1.0000
  C   C3450     1.0  0.42371  0.23663  0.12114  1.0000
  C   C3451     1.0  0.42868  0.23422  0.15314  1.0000
  C   C3452     1.0  0.39611  0.26806  0.15473  1.0000
  C   C3453     1.0  0.45612  0.19055  0.14621  1.0000
  C   C3454     1.0  0.44898  0.24816  0.19339  1.0000
  C   C3455     1.0  0.42819  0.20920  0.15791  1.0000
  C   C3456     1.0  0.47138  0.25658  0.13592  1.0000
  C   C3457     1.0  0.40274  0.24327  0.20048  1.0000
  C   C3458     1.0  0.43090  0.22512  0.21074  1.0000
  C   C3459     1.0  0.41321  0.27359  0.28676  1.0000
  C   C3460     1.0  0.42721  0.25963  0.30295  1.0000
  C   C3461     1.0  0.46744  0.21130  0.25469  1.0000
  C   C3462     1.0  0.47664  0.22508  0.29039  1.0000
  C   C3463     1.0  0.46663  0.22688  0.20701  1.0000
  C   C3464     1.0  0.48775  0.26748  0.22382  1.0000
  C   C3465     1.0  0.41322  0.20738  0.29471  1.0000
  C   C3466     1.0  0.42890  0.22780  0.32862  1.0000
  C   C3467     1.0  0.40366  0.27562  0.31821  1.0000
  C   C3468     1.0  0.39372  0.26589  0.34867  1.0000
  C   C3469     1.0  0.46288  0.20764  0.39097  1.0000
  C   C3470     1.0  0.49945  0.23329  0.39967  1.0000
  C   C3471     1.0  0.45875  0.23597  0.30155  1.0000
  C   C3472     1.0  0.48422  0.26595  0.34297  1.0000
  C   C3473     1.0  0.35261  0.19740  0.41687  1.0000
  C   C3474     1.0  0.41437  0.23201  0.41236  1.0000
  C   C3475     1.0  0.43398  0.24331  0.46425  1.0000
  C   C3476     1.0  0.38591  0.24895  0.47451  1.0000
  C   C3477     1.0  0.41392  0.23612  0.45029  1.0000
  C   C3478     1.0  0.46352  0.24273  0.48507  1.0000
  C   C3479     1.0  0.46388  0.23772  0.39595  1.0000
  C   C3480     1.0  0.46576  0.26316  0.39071  1.0000
  C   C3481     1.0  0.39942  0.19299  0.48936  1.0000
  C   C3482     1.0  0.40866  0.24854  0.54905  1.0000
  C   C3483     1.0  0.37942  0.21660  0.56519  1.0000
  C   C3484     1.0  0.39920  0.24932  0.56478  1.0000
  C   C3485     1.0  0.45204  0.21701  0.55317  1.0000
  C   C3486     1.0  0.48912  0.21339  0.59021  1.0000
  C   C3487     1.0  0.44607  0.24676  0.49414  1.0000
  C   C3488     1.0  0.48306  0.29566  0.53369  1.0000
  C   C3489     1.0  0.40402  0.23039  0.60958  1.0000
  C   C3490     1.0  0.45378  0.22073  0.60074  1.0000
  C   C3491     1.0  0.38685  0.23322  0.62572  1.0000
  C   C3492     1.0  0.40967  0.27679  0.68158  1.0000
  C   C3493     1.0  0.45569  0.25408  0.59094  1.0000
  C   C3494     1.0  0.46246  0.23262  0.66215  1.0000
  C   C3495     1.0  0.41935  0.26040  0.58834  1.0000
  C   C3496     1.0  0.48796  0.27260  0.63949  1.0000
  C   C3497     1.0  0.38666  0.19427  0.66691  1.0000
  C   C3498     1.0  0.44818  0.22430  0.70166  1.0000
  C   C3499     1.0  0.40539  0.24220  0.71401  1.0000
  C   C3500     1.0  0.38471  0.27698  0.75315  1.0000
  C   C3501     1.0  0.44031  0.21602  0.76598  1.0000
  C   C3502     1.0  0.45457  0.22449  0.77281  1.0000
  C   C3503     1.0  0.41748  0.25203  0.67357  1.0000
  C   C3504     1.0  0.47952  0.24597  0.71463  1.0000
  C   C3505     1.0  0.42470  0.20785  0.81005  1.0000
  C   C3506     1.0  0.40524  0.23756  0.82362  1.0000
  C   C3507     1.0  0.40085  0.25607  0.83215  1.0000
  C   C3508     1.0  0.40077  0.27108  0.89883  1.0000
  C   C3509     1.0  0.44459  0.23737  0.86295  1.0000
  C   C3510     1.0  0.52463  0.22415  0.89859  1.0000
  C   C3511     1.0  0.45245  0.20735  0.78980  1.0000
  C   C3512     1.0  0.45851  0.27664  0.77060  1.0000
  C   C3513     1.0  0.39612  0.21479  0.90527  1.0000
  C   C3514     1.0  0.42240  0.23564  0.88923  1.0000
  C   C3515     1.0  0.42012  0.24581  0.95281  1.0000
  C   C3516     1.0  0.40762  0.26118  0.99034  1.0000
  C   C3517     1.0  0.44381  0.21617  0.92324  1.0000
  C   C3518     1.0  0.48140  0.20162  0.98612  1.0000
  C   C3519     1.0  0.45406  0.25059  0.90303  1.0000
  C   C3520     1.0  0.42283  0.25817  0.93582  1.0000
  C   C3521     1.0  0.38517  0.28360  0.03971  1.0000
  C   C3522     1.0  0.46256  0.30302  0.04013  1.0000
  C   C3523     1.0  0.38949  0.30682  0.03094  1.0000
  C   C3524     1.0  0.40880  0.31783  0.12137  1.0000
  C   C3525     1.0  0.42972  0.28917  0.05540  1.0000
  C   C3526     1.0  0.45734  0.29668  0.09295  1.0000
  C   C3527     1.0  0.41697  0.31635  0.02057  1.0000
  C   C3528     1.0  0.48590  0.33012  0.00048  1.0000
  C   C3529     1.0  0.44844  0.28420  0.09932  1.0000
  C   C3530     1.0  0.41162  0.30523  0.15110  1.0000
  C   C3531     1.0  0.41394  0.31343  0.13424  1.0000
  C   C3532     1.0  0.43523  0.30893  0.16630  1.0000
  C   C3533     1.0  0.45494  0.29014  0.12364  1.0000
  C   C3534     1.0  0.50687  0.29917  0.17478  1.0000
  C   C3535     1.0  0.44798  0.29328  0.08113  1.0000
  C   C3536     1.0  0.45991  0.31299  0.13961  1.0000
  C   C3537     1.0  0.39692  0.30003  0.17912  1.0000
  C   C3538     1.0  0.44081  0.28484  0.23423  1.0000
  C   C3539     1.0  0.40720  0.33228  0.25880  1.0000
  C   C3540     1.0  0.41811  0.32880  0.29199  1.0000
  C   C3541     1.0  0.45897  0.26938  0.25416  1.0000
  C   C3542     1.0  0.47148  0.33498  0.26004  1.0000
  C   C3543     1.0  0.40242  0.34210  0.19281  1.0000
  C   C3544     1.0  0.47266  0.35065  0.21763  1.0000
  C   C3545     1.0  0.44915  0.24855  0.30631  1.0000
  C   C3546     1.0  0.46133  0.28852  0.30622  1.0000
  C   C3547     1.0  0.41106  0.32274  0.36408  1.0000
  C   C3548     1.0  0.41404  0.30075  0.35460  1.0000
  C   C3549     1.0  0.42980  0.27624  0.33887  1.0000
  C   C3550     1.0  0.51228  0.29595  0.33473  1.0000
  C   C3551     1.0  0.43819  0.31480  0.30282  1.0000
  C   C3552     1.0  0.51605  0.31019  0.29609  1.0000
  C   C3553     1.0  0.41292  0.31100  0.40501  1.0000
  C   C3554     1.0  0.41895  0.31785  0.42825  1.0000
  C   C3555     1.0  0.36337  0.31105  0.44488  1.0000
  C   C3556     1.0  0.41590  0.31547  0.48387  1.0000
  C   C3557     1.0  0.43885  0.26443  0.45422  1.0000
  C   C3558     1.0  0.48373  0.30589  0.49264  1.0000
  C   C3559     1.0  0.43193  0.30795  0.41103  1.0000
  C   C3560     1.0  0.47397  0.33360  0.40778  1.0000
  C   C3561     1.0  0.41062  0.28794  0.48026  1.0000
  C   C3562     1.0  0.44643  0.27013  0.49812  1.0000
  C   C3563     1.0  0.41230  0.30067  0.54601  1.0000
  C   C3564     1.0  0.45107  0.32576  0.62697  1.0000
  C   C3565     1.0  0.42358  0.26969  0.53051  1.0000
  C   C3566     1.0  0.47767  0.29009  0.54660  1.0000
  C   C3567     1.0  0.46469  0.32669  0.48710  1.0000
  C   C3568     1.0  0.45827  0.30905  0.49609  1.0000
  C   C3569     1.0  0.40561  0.27787  0.56464  1.0000
  C   C3570     1.0  0.46981  0.28225  0.59253  1.0000
  C   C3571     1.0  0.42626  0.27855  0.69829  1.0000
  C   C3572     1.0  0.41925  0.31315  0.67961  1.0000
  C   C3573     1.0  0.47282  0.29448  0.66242  1.0000
  C   C3574     1.0  0.45843  0.27409  0.66791  1.0000
  C   C3575     1.0  0.43925  0.28884  0.62346  1.0000
  C   C3576     1.0  0.50246  0.31947  0.62329  1.0000
  C   C3577     1.0  0.38462  0.28013  0.72012  1.0000
  C   C3578     1.0  0.43186  0.29865  0.69108  1.0000
  C   C3579     1.0  0.42807  0.31689  0.73683  1.0000
  C   C3580     1.0  0.45556  0.33148  0.79442  1.0000
  C   C3581     1.0  0.45056  0.27815  0.75305  1.0000
  C   C3582     1.0  0.44354  0.27175  0.82216  1.0000
  C   C3583     1.0  0.47512  0.29895  0.67965  1.0000
  C   C3584     1.0  0.48605  0.30825  0.72660  1.0000
  C   C3585     1.0  0.36276  0.27749  0.80385  1.0000
  C   C3586     1.0  0.40954  0.28517  0.84591  1.0000
  C   C3587     1.0  0.38363  0.29584  0.85323  1.0000
  C   C3588     1.0  0.43227  0.32486  0.86767  1.0000
  C   C3589     1.0  0.43176  0.30963  0.82960  1.0000
  C   C3590     1.0  0.46367  0.31604  0.90793  1.0000
  C   C3591     1.0  0.44524  0.32659  0.80305  1.0000
  C   C3592     1.0  0.48174  0.30239  0.81269  1.0000
  C   C3593     1.0  0.39449  0.27186  0.92636  1.0000
  C   C3594     1.0  0.42195  0.30495  0.89265  1.0000
  C   C3595     1.0  0.42446  0.31006  0.94013  1.0000
  C   C3596     1.0  0.48808  0.31238  0.98282  1.0000
  C   C3597     1.0  0.44370  0.27805  0.91911  1.0000
  C   C3598     1.0  0.47262  0.29877  0.97102  1.0000
  C   C3599     1.0  0.44525  0.31295  0.91000  1.0000
  C   C3600     1.0  0.46473  0.32934  0.92770  1.0000
  C   C3601     1.0  0.40010  0.34270  0.98459  1.0000
  C   C3602     1.0  0.41773  0.35790  0.04801  1.0000
  C   C3603     1.0  0.41423  0.35729  0.04217  1.0000
  C   C3604     1.0  0.41943  0.39524  0.05304  1.0000
  C   C3605     1.0  0.44178  0.34393  0.02976  1.0000
  C   C3606     1.0  0.49289  0.37818  0.12240  1.0000
  C   C3607     1.0  0.47857  0.39253  0.02549  1.0000
  C   C3608     1.0  0.45344  0.39481  0.00882  1.0000
  C   C3609     1.0  0.36762  0.32907  0.12437  1.0000
  C   C3610     1.0  0.45106  0.36420  0.11951  1.0000
  C   C3611     1.0  0.41488  0.35387  0.11066  1.0000
  C   C3612     1.0  0.44796  0.38491  0.15212  1.0000
  C   C3613     1.0  0.47844  0.33429  0.16927  1.0000
  C   C3614     1.0  0.45372  0.37177  0.15304  1.0000
  C   C3615     1.0  0.46137  0.34456  0.11521  1.0000
  C   C3616     1.0  0.49550  0.37419  0.15255  1.0000
  C   C3617     1.0  0.38271  0.33296  0.19904  1.0000
  C   C3618     1.0  0.41069  0.34977  0.26214  1.0000
  C   C3619     1.0  0.38792  0.36197  0.24049  1.0000
  C   C3620     1.0  0.40538  0.40089  0.26524  1.0000
  C   C3621     1.0  0.45756  0.33564  0.24657  1.0000
  C   C3622     1.0  0.50525  0.33941  0.23945  1.0000
  C   C3623     1.0  0.41758  0.34975  0.19309  1.0000
  C   C3624     1.0  0.47451  0.38146  0.24857  1.0000
  C   C3625     1.0  0.40598  0.34781  0.29300  1.0000
  C   C3626     1.0  0.44400  0.36252  0.35375  1.0000
  C   C3627     1.0  0.38415  0.36240  0.38929  1.0000
  C   C3628     1.0  0.41065  0.41111  0.42136  1.0000
  C   C3629     1.0  0.48412  0.31236  0.32659  1.0000
  C   C3630     1.0  0.45200  0.36180  0.35944  1.0000
  C   C3631     1.0  0.44413  0.37484  0.33675  1.0000
  C   C3632     1.0  0.48803  0.38829  0.33713  1.0000
  C   C3633     1.0  0.37707  0.32975  0.43381  1.0000
  C   C3634     1.0  0.42363  0.34945  0.45339  1.0000
  C   C3635     1.0  0.38881  0.39483  0.46493  1.0000
  C   C3636     1.0  0.38142  0.40141  0.47251  1.0000
  C   C3637     1.0  0.43422  0.33671  0.44117  1.0000
  C   C3638     1.0  0.47850  0.33746  0.44348  1.0000
  C   C3639     1.0  0.43499  0.36487  0.38999  1.0000
  C   C3640     1.0  0.49377  0.41279  0.49205  1.0000
  C   C3641     1.0  0.40896  0.34013  0.53082  1.0000
  C   C3642     1.0  0.43706  0.32367  0.55574  1.0000
  C   C3643     1.0  0.43799  0.35602  0.54770  1.0000
  C   C3644     1.0  0.43173  0.37868  0.58746  1.0000
  C   C3645     1.0  0.46484  0.33596  0.54015  1.0000
  C   C3646     1.0  0.45198  0.35979  0.56143  1.0000
  C   C3647     1.0  0.44719  0.35367  0.48824  1.0000
  C   C3648     1.0  0.47581  0.38443  0.50634  1.0000
  C   C3649     1.0  0.37790  0.33878  0.59207  1.0000
  C   C3650     1.0  0.42860  0.35137  0.65791  1.0000
  C   C3651     1.0  0.39329  0.35551  0.61599  1.0000
  C   C3652     1.0  0.46046  0.39194  0.70174  1.0000
  C   C3653     1.0  0.42798  0.36300  0.65582  1.0000
  C   C3654     1.0  0.45516  0.34609  0.66639  1.0000
  C   C3655     1.0  0.44484  0.37067  0.62357  1.0000
  C   C3656     1.0  0.51103  0.38274  0.66190  1.0000
  C   C3657     1.0  0.38886  0.34932  0.70703  1.0000
  C   C3658     1.0  0.40927  0.36935  0.76520  1.0000
  C   C3659     1.0  0.37283  0.36449  0.75385  1.0000
  C   C3660     1.0  0.45571  0.42567  0.79996  1.0000
  C   C3661     1.0  0.41622  0.33195  0.75677  1.0000
  C   C3662     1.0  0.45258  0.35675  0.74901  1.0000
  C   C3663     1.0  0.43316  0.34347  0.66888  1.0000
  C   C3664     1.0  0.48948  0.38844  0.71023  1.0000
  C   C3665     1.0  0.39969  0.34644  0.79993  1.0000
  C   C3666     1.0  0.44908  0.35055  0.83249  1.0000
  C   C3667     1.0  0.38166  0.39667  0.82922  1.0000
  C   C3668     1.0  0.45191  0.39464  0.86523  1.0000
  C   C3669     1.0  0.43145  0.33910  0.86250  1.0000
  C   C3670     1.0  0.52587  0.34153  0.92025  1.0000
  C   C3671     1.0  0.43868  0.36311  0.81547  1.0000
  C   C3672     1.0  0.49236  0.37513  0.83470  1.0000
  C   C3673     1.0  0.36254  0.35137  0.88440  1.0000
  C   C3674     1.0  0.44145  0.35780  0.95344  1.0000
  C   C3675     1.0  0.39788  0.36574  0.96864  1.0000
  C   C3676     1.0  0.39538  0.38184  0.98382  1.0000
  C   C3677     1.0  0.46207  0.33831  0.92195  1.0000
  C   C3678     1.0  0.46837  0.36289  0.97044  1.0000
  C   C3679     1.0  0.42712  0.38551  0.89742  1.0000
  C   C3680     1.0  0.47991  0.39579  0.93826  1.0000
  C   C3681     1.0  0.40602  0.39972  0.96215  1.0000
  C   C3682     1.0  0.42102  0.39736  0.04366  1.0000
  C   C3683     1.0  0.36878  0.41153  0.06721  1.0000
  C   C3684     1.0  0.41526  0.44269  0.09861  1.0000
  C   C3685     1.0  0.46456  0.39550  0.04738  1.0000
  C   C3686     1.0  0.47447  0.40069  0.09502  1.0000
  C   C3687     1.0  0.45412  0.42856  0.95830  1.0000
  C   C3688     1.0  0.44784  0.44964  0.04632  1.0000
  C   C3689     1.0  0.43125  0.43011  0.13745  1.0000
  C   C3690     1.0  0.44303  0.44157  0.11763  1.0000
  C   C3691     1.0  0.39635  0.45313  0.16024  1.0000
  C   C3692     1.0  0.46132  0.45762  0.19859  1.0000
  C   C3693     1.0  0.46071  0.39584  0.14270  1.0000
  C   C3694     1.0  0.47931  0.41328  0.14731  1.0000
  C   C3695     1.0  0.40168  0.42718  0.05490  1.0000
  C   C3696     1.0  0.47922  0.45390  0.14064  1.0000
  C   C3697     1.0  0.38723  0.40917  0.18509  1.0000
  C   C3698     1.0  0.44067  0.42262  0.22569  1.0000
  C   C3699     1.0  0.43153  0.42863  0.26468  1.0000
  C   C3700     1.0  0.44201  0.45840  0.27756  1.0000
  C   C3701     1.0  0.46635  0.40131  0.25670  1.0000
  C   C3702     1.0  0.49549  0.40195  0.29045  1.0000
  C   C3703     1.0  0.42491  0.42065  0.22120  1.0000
  C   C3704     1.0  0.44405  0.43590  0.21256  1.0000
  C   C3705     1.0  0.38679  0.39172  0.28855  1.0000
  C   C3706     1.0  0.44550  0.41080  0.32886  1.0000
  C   C3707     1.0  0.37879  0.41064  0.37623  1.0000
  C   C3708     1.0  0.43270  0.44666  0.38382  1.0000
  C   C3709     1.0  0.42936  0.38434  0.34973  1.0000
  C   C3710     1.0  0.51264  0.40035  0.37864  1.0000
  C   C3711     1.0  0.46952  0.45077  0.26635  1.0000
  C   C3712     1.0  0.48976  0.47752  0.31563  1.0000
  C   C3713     1.0  0.39020  0.40230  0.41319  1.0000
  C   C3714     1.0  0.44018  0.41800  0.44056  1.0000
  C   C3715     1.0  0.40730  0.42280  0.42339  1.0000
  C   C3716     1.0  0.41076  0.46098  0.49446  1.0000
  C   C3717     1.0  0.45547  0.39046  0.43718  1.0000
  C   C3718     1.0  0.47531  0.42238  0.47490  1.0000
  C   C3719     1.0  0.44332  0.44616  0.39222  1.0000
  C   C3720     1.0  0.46302  0.44682  0.42039  1.0000
  C   C3721     1.0  0.41715  0.42224  0.51994  1.0000
  C   C3722     1.0  0.42242  0.40695  0.54255  1.0000
  C   C3723     1.0  0.38789  0.43268  0.54351  1.0000
  C   C3724     1.0  0.39477  0.44186  0.54869  1.0000
  C   C3725     1.0  0.44947  0.39302  0.51318  1.0000
  C   C3726     1.0  0.46889  0.40399  0.57617  1.0000
  C   C3727     1.0  0.43487  0.44566  0.49152  1.0000
  C   C3728     1.0  0.48574  0.45142  0.54808  1.0000
  C   C3729     1.0  0.38867  0.39050  0.55147  1.0000
  C   C3730     1.0  0.40811  0.40914  0.64104  1.0000
  C   C3731     1.0  0.42023  0.40622  0.65542  1.0000
  C   C3732     1.0  0.45189  0.41930  0.68292  1.0000
  C   C3733     1.0  0.46660  0.38352  0.63598  1.0000
  C   C3734     1.0  0.46467  0.39411  0.67293  1.0000
  C   C3735     1.0  0.44253  0.43155  0.54875  1.0000
  C   C3736     1.0  0.49612  0.42610  0.63304  1.0000
  C   C3737     1.0  0.41151  0.42645  0.68292  1.0000
  C   C3738     1.0  0.41921  0.40067  0.70401  1.0000
  C   C3739     1.0  0.41027  0.42613  0.76126  1.0000
  C   C3740     1.0  0.41744  0.43611  0.77116  1.0000
  C   C3741     1.0  0.47769  0.40413  0.72699  1.0000
  C   C3742     1.0  0.51699  0.42189  0.75277  1.0000
  C   C3743     1.0  0.42154  0.42468  0.72158  1.0000
  C   C3744     1.0  0.44164  0.43132  0.72408  1.0000
  C   C3745     1.0  0.40642  0.39287  0.78878  1.0000
  C   C3746     1.0  0.39844  0.43397  0.79961  1.0000
  C   C3747     1.0  0.40819  0.42676  0.89653  1.0000
  C   C3748     1.0  0.42788  0.47273  0.85307  1.0000
  C   C3749     1.0  0.45726  0.38697  0.89156  1.0000
  C   C3750     1.0  0.47407  0.41593  0.88901  1.0000
  C   C3751     1.0  0.40077  0.41940  0.76574  1.0000
  C   C3752     1.0  0.49940  0.43164  0.81914  1.0000
  C   C3753     1.0  0.37180  0.37198  0.92794  1.0000
  C   C3754     1.0  0.41703  0.41220  0.90804  1.0000
  C   C3755     1.0  0.43770  0.41655  0.97800  1.0000
  C   C3756     1.0  0.44086  0.43564  0.99842  1.0000
  C   C3757     1.0  0.44762  0.41614  0.95090  1.0000
  C   C3758     1.0  0.44681  0.41860  0.97494  1.0000
  C   C3759     1.0  0.44963  0.43878  0.89490  1.0000
  C   C3760     1.0  0.47702  0.46227  0.93223  1.0000
  C   C3761     1.0  0.41979  0.44888  0.99897  1.0000
  C   C3762     1.0  0.43167  0.47982  0.05945  1.0000
  C   C3763     1.0  0.39287  0.50387  0.05937  1.0000
  C   C3764     1.0  0.42757  0.51677  0.06902  1.0000
  C   C3765     1.0  0.42521  0.43995  0.02586  1.0000
  C   C3766     1.0  0.48255  0.49770  0.09237  1.0000
  C   C3767     1.0  0.45815  0.49969  0.00802  1.0000
  C   C3768     1.0  0.47263  0.50269  0.02440  1.0000
  C   C3769     1.0  0.42768  0.47798  0.09750  1.0000
  C   C3770     1.0  0.43377  0.46991  0.14875  1.0000
  C   C3771     1.0  0.39520  0.49802  0.14649  1.0000
  C   C3772     1.0  0.41482  0.51493  0.15791  1.0000
  C   C3773     1.0  0.44775  0.49246  0.12861  1.0000
  C   C3774     1.0  0.48339  0.50279  0.17535  1.0000
  C   C3775     1.0  0.44975  0.48248  0.09291  1.0000
  C   C3776     1.0  0.48500  0.51026  0.13044  1.0000
  C   C3777     1.0  0.39854  0.46535  0.21959  1.0000
  C   C3778     1.0  0.42512  0.48394  0.25999  1.0000
  C   C3779     1.0  0.35843  0.48381  0.24848  1.0000
  C   C3780     1.0  0.45776  0.54776  0.28781  1.0000
  C   C3781     1.0  0.45500  0.43534  0.25420  1.0000
  C   C3782     1.0  0.49820  0.47627  0.27780  1.0000
  C   C3783     1.0  0.46359  0.48139  0.17453  1.0000
  C   C3784     1.0  0.47674  0.49669  0.23656  1.0000
  C   C3785     1.0  0.37796  0.47644  0.26901  1.0000
  C   C3786     1.0  0.42509  0.49658  0.26280  1.0000
  C   C3787     1.0  0.39710  0.52753  0.36697  1.0000
  C   C3788     1.0  0.40308  0.51654  0.36953  1.0000
  C   C3789     1.0  0.43024  0.46232  0.36244  1.0000
  C   C3790     1.0  0.47284  0.47030  0.39013  1.0000
  C   C3791     1.0  0.44674  0.49171  0.31097  1.0000
  C   C3792     1.0  0.45477  0.53010  0.32206  1.0000
  C   C3793     1.0  0.39091  0.48077  0.45172  1.0000
  C   C3794     1.0  0.47311  0.48393  0.41298  1.0000
  C   C3795     1.0  0.40479  0.50087  0.49926  1.0000
  C   C3796     1.0  0.37919  0.50799  0.46606  1.0000
  C   C3797     1.0  0.41930  0.46954  0.42522  1.0000
  C   C3798     1.0  0.48413  0.47748  0.43249  1.0000
  C   C3799     1.0  0.45444  0.49606  0.39141  1.0000
  C   C3800     1.0  0.46443  0.49901  0.43776  1.0000
  C   C3801     1.0  0.41049  0.43029  0.46164  1.0000
  C   C3802     1.0  0.44278  0.47815  0.52498  1.0000
  C   C3803     1.0  0.41164  0.46623  0.50768  1.0000
  C   C3804     1.0  0.43965  0.51317  0.58900  1.0000
  C   C3805     1.0  0.47076  0.45260  0.60467  1.0000
  C   C3806     1.0  0.47845  0.46331  0.62426  1.0000
  C   C3807     1.0  0.47003  0.52243  0.51169  1.0000
  C   C3808     1.0  0.46399  0.51901  0.52634  1.0000
  C   C3809     1.0  0.39294  0.46301  0.57984  1.0000
  C   C3810     1.0  0.44136  0.45649  0.62572  1.0000
  C   C3811     1.0  0.34153  0.49470  0.66882  1.0000
  C   C3812     1.0  0.42953  0.51169  0.70273  1.0000
  C   C3813     1.0  0.45458  0.47199  0.64272  1.0000
  C   C3814     1.0  0.48421  0.47935  0.67423  1.0000
  C   C3815     1.0  0.45882  0.49755  0.59592  1.0000
  C   C3816     1.0  0.48070  0.48641  0.60351  1.0000
  C   C3817     1.0  0.37804  0.46561  0.70446  1.0000
  C   C3818     1.0  0.41449  0.47859  0.72341  1.0000
  C   C3819     1.0  0.41413  0.50004  0.75784  1.0000
  C   C3820     1.0  0.41250  0.51331  0.78151  1.0000
  C   C3821     1.0  0.41845  0.45418  0.76132  1.0000
  C   C3822     1.0  0.47943  0.48464  0.80848  1.0000
  C   C3823     1.0  0.45642  0.48551  0.68596  1.0000
  C   C3824     1.0  0.48171  0.49133  0.68407  1.0000
  C   C3825     1.0  0.40092  0.47693  0.83737  1.0000
  C   C3826     1.0  0.42424  0.49605  0.86021  1.0000
  C   C3827     1.0  0.43282  0.52749  0.83401  1.0000
  C   C3828     1.0  0.41976  0.53978  0.84732  1.0000
  C   C3829     1.0  0.46090  0.44988  0.85644  1.0000
  C   C3830     1.0  0.44284  0.47199  0.86897  1.0000
  C   C3831     1.0  0.46869  0.50783  0.77580  1.0000
  C   C3832     1.0  0.47942  0.51046  0.85826  1.0000
  C   C3833     1.0  0.44981  0.44319  0.91994  1.0000
  C   C3834     1.0  0.41726  0.46638  0.89764  1.0000
  C   C3835     1.0  0.35970  0.50332  0.96445  1.0000
  C   C3836     1.0  0.43745  0.52277  0.94230  1.0000
  C   C3837     1.0  0.46061  0.46018  0.94609  1.0000
  C   C3838     1.0  0.45183  0.50910  0.99478  1.0000
  C   C3839     1.0  0.43211  0.48530  0.94940  1.0000
  C   C3840     1.0  0.49534  0.50668  0.90708  1.0000
  C   C3841     1.0  0.41876  0.53749  0.04053  1.0000
  C   C3842     1.0  0.40257  0.55482  0.02901  1.0000
  C   C3843     1.0  0.40186  0.56599  0.01700  1.0000
  C   C3844     1.0  0.36936  0.57936  0.09559  1.0000
  C   C3845     1.0  0.46739  0.53335  0.04679  1.0000
  C   C3846     1.0  0.47518  0.53503  0.08158  1.0000
  C   C3847     1.0  0.46128  0.54782  0.99121  1.0000
  C   C3848     1.0  0.48025  0.56278  0.98644  1.0000
  C   C3849     1.0  0.39215  0.51630  0.10101  1.0000
  C   C3850     1.0  0.44896  0.51853  0.11374  1.0000
  C   C3851     1.0  0.41130  0.55358  0.16394  1.0000
  C   C3852     1.0  0.39243  0.57431  0.14231  1.0000
  C   C3853     1.0  0.46432  0.53499  0.14618  1.0000
  C   C3854     1.0  0.46391  0.53525  0.18155  1.0000
  C   C3855     1.0  0.44457  0.54881  0.11516  1.0000
  C   C3856     1.0  0.52472  0.58875  0.12851  1.0000
  C   C3857     1.0  0.42289  0.50001  0.20621  1.0000
  C   C3858     1.0  0.45830  0.57013  0.23277  1.0000
  C   C3859     1.0  0.39000  0.53809  0.23845  1.0000
  C   C3860     1.0  0.42666  0.57829  0.29993  1.0000
  C   C3861     1.0  0.47812  0.52884  0.23415  1.0000
  C   C3862     1.0  0.45783  0.52941  0.23466  1.0000
  C   C3863     1.0  0.46255  0.54258  0.21320  1.0000
  C   C3864     1.0  0.45611  0.57194  0.21817  1.0000
  C   C3865     1.0  0.43952  0.55135  0.30746  1.0000
  C   C3866     1.0  0.43480  0.53702  0.32098  1.0000
  C   C3867     1.0  0.39237  0.55706  0.35859  1.0000
  C   C3868     1.0  0.43548  0.57853  0.34527  1.0000
  C   C3869     1.0  0.47877  0.53637  0.36578  1.0000
  C   C3870     1.0  0.42575  0.56295  0.36913  1.0000
  C   C3871     1.0  0.43022  0.53550  0.28206  1.0000
  C   C3872     1.0  0.48230  0.56868  0.34326  1.0000
  C   C3873     1.0  0.42721  0.55044  0.39403  1.0000
  C   C3874     1.0  0.43979  0.54939  0.46028  1.0000
  C   C3875     1.0  0.38256  0.54352  0.46245  1.0000
  C   C3876     1.0  0.42047  0.55879  0.46434  1.0000
  C   C3877     1.0  0.48411  0.53323  0.44597  1.0000
  C   C3878     1.0  0.48955  0.55476  0.47693  1.0000
  C   C3879     1.0  0.45452  0.55185  0.42713  1.0000
  C   C3880     1.0  0.49820  0.55923  0.44219  1.0000
  C   C3881     1.0  0.39060  0.54330  0.49885  1.0000
  C   C3882     1.0  0.40306  0.53536  0.53254  1.0000
  C   C3883     1.0  0.38741  0.55544  0.56282  1.0000
  C   C3884     1.0  0.39373  0.57597  0.55746  1.0000
  C   C3885     1.0  0.48387  0.50438  0.57062  1.0000
  C   C3886     1.0  0.48305  0.56364  0.56936  1.0000
  C   C3887     1.0  0.43381  0.56220  0.48021  1.0000
  C   C3888     1.0  0.49370  0.54223  0.52541  1.0000
  C   C3889     1.0  0.40978  0.52930  0.61562  1.0000
  C   C3890     1.0  0.39705  0.52886  0.64728  1.0000
  C   C3891     1.0  0.40543  0.55667  0.63060  1.0000
  C   C3892     1.0  0.40312  0.59589  0.68954  1.0000
  C   C3893     1.0  0.46944  0.51100  0.64718  1.0000
  C   C3894     1.0  0.49638  0.51562  0.67412  1.0000
  C   C3895     1.0  0.47187  0.56929  0.62739  1.0000
  C   C3896     1.0  0.46587  0.57663  0.63058  1.0000
  C   C3897     1.0  0.38761  0.52643  0.72652  1.0000
  C   C3898     1.0  0.38835  0.53449  0.74199  1.0000
  C   C3899     1.0  0.40855  0.57246  0.73462  1.0000
  C   C3900     1.0  0.43572  0.57713  0.73717  1.0000
  C   C3901     1.0  0.46362  0.52382  0.79204  1.0000
  C   C3902     1.0  0.43341  0.52309  0.77696  1.0000
  C   C3903     1.0  0.43419  0.51722  0.72380  1.0000
  C   C3904     1.0  0.46585  0.57337  0.74858  1.0000
  C   C3905     1.0  0.40620  0.52010  0.77199  1.0000
  C   C3906     1.0  0.42850  0.55044  0.82974  1.0000
  C   C3907     1.0  0.38548  0.53989  0.86401  1.0000
  C   C3908     1.0  0.40372  0.59461  0.85392  1.0000
  C   C3909     1.0  0.46285  0.50460  0.86227  1.0000
  C   C3910     1.0  0.50196  0.52645  0.83408  1.0000
  C   C3911     1.0  0.43328  0.56278  0.78677  1.0000
  C   C3912     1.0  0.48578  0.56562  0.82240  1.0000
  C   C3913     1.0  0.38809  0.52847  0.89650  1.0000
  C   C3914     1.0  0.45383  0.53268  0.91186  1.0000
  C   C3915     1.0  0.40325  0.55320  0.98518  1.0000
  C   C3916     1.0  0.42943  0.56389  0.96223  1.0000
  C   C3917     1.0  0.46881  0.52375  0.92301  1.0000
  C   C3918     1.0  0.48431  0.54631  0.97989  1.0000
  C   C3919     1.0  0.42724  0.57462  0.86352  1.0000
  C   C3920     1.0  0.49654  0.58186  0.95316  1.0000
  C   C3921     1.0  0.42354  0.57630  0.99436  1.0000
  C   C3922     1.0  0.43120  0.61144  0.02778  1.0000
  C   C3923     1.0  0.42855  0.63291  0.05508  1.0000
  C   C3924     1.0  0.40496  0.63080  0.10598  1.0000
  C   C3925     1.0  0.45719  0.58478  0.02771  1.0000
  C   C3926     1.0  0.48104  0.58545  0.06930  1.0000
  C   C3927     1.0  0.42555  0.64132  0.01616  1.0000
  C   C3928     1.0  0.48192  0.63361  0.05196  1.0000
  C   C3929     1.0  0.39593  0.56738  0.10674  1.0000
  C   C3930     1.0  0.38825  0.59554  0.11933  1.0000
  C   C3931     1.0  0.41218  0.59959  0.14970  1.0000
  C   C3932     1.0  0.41488  0.62052  0.15708  1.0000
  C   C3933     1.0  0.46881  0.61378  0.19555  1.0000
  C   C3934     1.0  0.47969  0.61777  0.21032  1.0000
  C   C3935     1.0  0.47465  0.61997  0.10550  1.0000
  C   C3936     1.0  0.46834  0.04441  0.10746  1.0000
  C   C3937     1.0  0.40948  0.59102  0.22371  1.0000
  C   C3938     1.0  0.42500  0.60654  0.17086  1.0000
  C   C3939     1.0  0.43413  0.62548  0.30684  1.0000
  C   C3940     1.0  0.41606  0.62920  0.27572  1.0000
  C   C3941     1.0  0.45613  0.58876  0.24272  1.0000
  C   C3942     1.0  0.47296  0.60733  0.26113  1.0000
  C   C3943     1.0  0.41252  0.03882  0.20533  1.0000
  C   C3944     1.0  0.48935  0.61638  0.21314  1.0000
  C   C3945     1.0  0.38783  0.59044  0.29378  1.0000
  C   C3946     1.0  0.43183  0.61350  0.32927  1.0000
  C   C3947     1.0  0.36787  0.61750  0.34738  1.0000
  C   C3948     1.0  0.42250  0.62957  0.38680  1.0000
  C   C3949     1.0  0.42434  0.58016  0.36462  1.0000
  C   C3950     1.0  0.45084  0.61152  0.43686  1.0000
  C   C3951     1.0  0.46324  0.62090  0.34297  1.0000
  C   C3952     1.0  0.47048  0.64251  0.37560  1.0000
  C   C3953     1.0  0.40723  0.57895  0.40062  1.0000
  C   C3954     1.0  0.40844  0.60034  0.42238  1.0000
  C   C3955     1.0  0.40777  0.61988  0.45972  1.0000
  C   C3956     1.0  0.44504  0.63651  0.51718  1.0000
  C   C3957     1.0  0.45222  0.58906  0.43081  1.0000
  C   C3958     1.0  0.51017  0.61883  0.51684  1.0000
  C   C3959     1.0  0.42642  0.63762  0.42009  1.0000
  C   C3960     1.0  0.49107  0.63422  0.43962  1.0000
  C   C3961     1.0  0.39589  0.56655  0.51336  1.0000
  C   C3962     1.0  0.41329  0.59757  0.52947  1.0000
  C   C3963     1.0  0.35703  0.61896  0.53001  1.0000
  C   C3964     1.0  0.40070  0.61392  0.55413  1.0000
  C   C3965     1.0  0.45515  0.57224  0.59151  1.0000
  C   C3966     1.0  0.44127  0.60068  0.57323  1.0000
  C   C3967     1.0  0.45787  0.60835  0.56601  1.0000
  C   C3968     1.0  0.50989  0.64030  0.52215  1.0000
  C   C3969     1.0  0.41233  0.60023  0.62028  1.0000
  C   C3970     1.0  0.44076  0.60501  0.58268  1.0000
  C   C3971     1.0  0.40155  0.60141  0.61547  1.0000
  C   C3972     1.0  0.42315  0.04010  0.69896  1.0000
  C   C3973     1.0  0.48158  0.57106  0.65544  1.0000
  C   C3974     1.0  0.44768  0.62864  0.63615  1.0000
  C   C3975     1.0  0.44141  0.60565  0.57297  1.0000
  C   C3976     1.0  0.45957  0.62217  0.61435  1.0000
  C   C3977     1.0  0.41959  0.55475  0.72688  1.0000
  C   C3978     1.0  0.41112  0.61657  0.73124  1.0000
  C   C3979     1.0  0.37885  0.60299  0.74609  1.0000
  C   C3980     1.0  0.42472  0.62055  0.78771  1.0000
  C   C3981     1.0  0.45986  0.59322  0.74369  1.0000
  C   C3982     1.0  0.47895  0.61432  0.77739  1.0000
  C   C3983     1.0  0.46330  0.62812  0.74064  1.0000
  C   C3984     1.0  0.45039  0.62274  0.71813  1.0000
  C   C3985     1.0  0.40703  0.58309  0.78316  1.0000
  C   C3986     1.0  0.43816  0.60343  0.83321  1.0000
  C   C3987     1.0  0.41114  0.64195  0.85850  1.0000
  C   C3988     1.0  0.41492  0.62879  0.86186  1.0000
  C   C3989     1.0  0.46759  0.57541  0.86700  1.0000
  C   C3990     1.0  0.49726  0.59482  0.88041  1.0000
  C   C3991     1.0  0.39534  0.61488  0.81220  1.0000
  C   C3992     1.0  0.48889  0.63405  0.83210  1.0000
  C   C3993     1.0  0.39245  0.58044  0.88728  1.0000
  C   C3994     1.0  0.43945  0.59928  0.89191  1.0000
  C   C3995     1.0  0.44164  0.61536  0.95460  1.0000
  C   C3996     1.0  0.42955  0.61570  0.97538  1.0000
  C   C3997     1.0  0.42247  0.58340  0.94025  1.0000
  C   C3998     1.0  0.50619  0.58318  0.93927  1.0000
  C   C3999     1.0  0.45759  0.61732  0.90960  1.0000
  C   C4000     1.0  0.50060  0.62536  0.91063  1.0000
  C   C4001     1.0  0.50275  0.61728  0.01809  1.0000
  C   C4002     1.0  0.53703  0.05335  0.05441  1.0000
  C   C4003     1.0  0.51086  0.05568  0.07706  1.0000
  C   C4004     1.0  0.51343  0.07346  0.11080  1.0000
  C   C4005     1.0  0.55649  0.03501  0.05471  1.0000
  C   C4006     1.0  0.57878  0.06544  0.09251  1.0000
  C   C4007     1.0  0.53393  0.06866  0.00328  1.0000
  C   C4008     1.0  0.53483  0.07939  0.01784  1.0000
  C   C4009     1.0  0.47340  0.06781  0.11099  1.0000
  C   C4010     1.0  0.54908  0.03636  0.07730  1.0000
  C   C4011     1.0  0.50452  0.07332  0.21393  1.0000
  C   C4012     1.0  0.53709  0.09011  0.20172  1.0000
  C   C4013     1.0  0.54782  0.04520  0.16039  1.0000
  C   C4014     1.0  0.58319  0.04137  0.19247  1.0000
  C   C4015     1.0  0.51672  0.06747  0.11384  1.0000
  C   C4016     1.0  0.55678  0.07234  0.09021  1.0000
  C   C4017     1.0  0.48731  0.04269  0.16797  1.0000
  C   C4018     1.0  0.48018  0.04273  0.25562  1.0000
  C   C4019     1.0  0.49490  0.05720  0.26526  1.0000
  C   C4020     1.0  0.51429  0.06445  0.28388  1.0000
  C   C4021     1.0  0.53227  0.63343  0.24202  1.0000
  C   C4022     1.0  0.58790  0.05559  0.29420  1.0000
  C   C4023     1.0  0.54192  0.06982  0.20601  1.0000
  C   C4024     1.0  0.60466  0.07492  0.17655  1.0000
  C   C4025     1.0  0.50489  0.63494  0.33944  1.0000
  C   C4026     1.0  0.49358  0.05055  0.33405  1.0000
  C   C4027     1.0  0.44932  0.07921  0.37413  1.0000
  C   C4028     1.0  0.53268  0.07524  0.39666  1.0000
  C   C4029     1.0  0.54820  0.05483  0.32730  1.0000
  C   C4030     1.0  0.58659  0.64265  0.35936  1.0000
  C   C4031     1.0  0.50898  0.08828  0.34276  1.0000
  C   C4032     1.0  0.60069  0.08892  0.35416  1.0000
  C   C4033     1.0  0.49518  0.64641  0.42056  1.0000
  C   C4034     1.0  0.48225  0.04370  0.43351  1.0000
  C   C4035     1.0  0.49679  0.05401  0.45053  1.0000
  C   C4036     1.0  0.53390  0.08106  0.49471  1.0000
  C   C4037     1.0  0.55534  0.64096  0.45998  1.0000
  C   C4038     1.0  0.58325  0.05574  0.42937  1.0000
  C   C4039     1.0  0.55245  0.08092  0.37509  1.0000
  C   C4040     1.0  0.58686  0.08201  0.43126  1.0000
  C   C4041     1.0  0.53137  0.62706  0.52806  1.0000
  C   C4042     1.0  0.52626  0.64074  0.55332  1.0000
  C   C4043     1.0  0.46984  0.64402  0.53810  1.0000
  C   C4044     1.0  0.56522  0.07606  0.60428  1.0000
  C   C4045     1.0  0.58849  0.62930  0.56523  1.0000
  C   C4046     1.0  0.57156  0.06455  0.59561  1.0000
  C   C4047     1.0  0.58816  0.06717  0.50419  1.0000
  C   C4048     1.0  0.56214  0.04603  0.52016  1.0000
  C   C4049     1.0  0.51830  0.64539  0.61785  1.0000
  C   C4050     1.0  0.50675  0.04913  0.63881  1.0000
  C   C4051     1.0  0.50824  0.05049  0.67365  1.0000
  C   C4052     1.0  0.53301  0.06153  0.70509  1.0000
  C   C4053     1.0  0.54337  0.64042  0.63031  1.0000
  C   C4054     1.0  0.58304  0.03691  0.65982  1.0000
  C   C4055     1.0  0.54587  0.06938  0.61093  1.0000
  C   C4056     1.0  0.55585  0.09640  0.63396  1.0000
  C   C4057     1.0  0.51151  0.61999  0.70258  1.0000
  C   C4058     1.0  0.54707  0.05927  0.73657  1.0000
  C   C4059     1.0  0.54168  0.06084  0.75728  1.0000
  C   C4060     1.0  0.49518  0.06949  0.79083  1.0000
  C   C4061     1.0  0.53930  0.04636  0.75136  1.0000
  C   C4062     1.0  0.59898  0.05442  0.75087  1.0000
  C   C4063     1.0  0.53194  0.04976  0.72890  1.0000
  C   C4064     1.0  0.57417  0.07677  0.77280  1.0000
  C   C4065     1.0  0.47872  0.63609  0.84111  1.0000
  C   C4066     1.0  0.53549  0.05679  0.85260  1.0000
  C   C4067     1.0  0.52981  0.04733  0.82800  1.0000
  C   C4068     1.0  0.54097  0.08630  0.88439  1.0000
  C   C4069     1.0  0.56738  0.63270  0.84406  1.0000
  C   C4070     1.0  0.59600  0.05665  0.87577  1.0000
  C   C4071     1.0  0.53885  0.05905  0.84025  1.0000
  C   C4072     1.0  0.60376  0.09915  0.81765  1.0000
  C   C4073     1.0  0.44743  0.03786  0.88721  1.0000
  C   C4074     1.0  0.54811  0.07087  0.93000  1.0000
  C   C4075     1.0  0.51199  0.05973  0.95817  1.0000
  C   C4076     1.0  0.47866  0.06649  0.96695  1.0000
  C   C4077     1.0  0.56166  0.03922  0.96611  1.0000
  C   C4078     1.0  0.57874  0.03655  0.98913  1.0000
  C   C4079     1.0  0.56467  0.08225  0.86342  1.0000
  C   C4080     1.0  0.56365  0.08086  0.94156  1.0000
  C   C4081     1.0  0.54809  0.10330  0.01471  1.0000
  C   C4082     1.0  0.53581  0.10036  0.03549  1.0000
  C   C4083     1.0  0.50880  0.13966  0.01811  1.0000
  C   C4084     1.0  0.52636  0.12848  0.04504  1.0000
  C   C4085     1.0  0.51635  0.09134  0.03475  1.0000
  C   C4086     1.0  0.57403  0.07241  0.05823  1.0000
  C   C4087     1.0  0.54005  0.11777  0.00987  1.0000
  C   C4088     1.0  0.57738  0.11339  0.03773  1.0000
  C   C4089     1.0  0.50556  0.07854  0.10681  1.0000
  C   C4090     1.0  0.54970  0.09775  0.12631  1.0000
  C   C4091     1.0  0.46418  0.14904  0.12843  1.0000
  C   C4092     1.0  0.54082  0.12896  0.17101  1.0000
  C   C4093     1.0  0.59922  0.06804  0.16090  1.0000
  C   C4094     1.0  0.56786  0.06393  0.19033  1.0000
  C   C4095     1.0  0.56631  0.12366  0.11078  1.0000
  C   C4096     1.0  0.57199  0.13927  0.10863  1.0000
  C   C4097     1.0  0.48567  0.10623  0.22488  1.0000
  C   C4098     1.0  0.53752  0.10749  0.22497  1.0000
  C   C4099     1.0  0.51859  0.13818  0.25951  1.0000
  C   C4100     1.0  0.52804  0.16538  0.30485  1.0000
  C   C4101     1.0  0.55281  0.07288  0.25887  1.0000
  C   C4102     1.0  0.54579  0.08445  0.26935  1.0000
  C   C4103     1.0  0.55969  0.14584  0.19936  1.0000
  C   C4104     1.0  0.54665  0.15334  0.18264  1.0000
  C   C4105     1.0  0.52250  0.08598  0.28580  1.0000
  C   C4106     1.0  0.56239  0.10687  0.36012  1.0000
  C   C4107     1.0  0.52269  0.14751  0.38217  1.0000
  C   C4108     1.0  0.59374  0.13821  0.35708  1.0000
  C   C4109     1.0  0.55775  0.10155  0.37855  1.0000
  C   C4110     1.0  0.55665  0.11558  0.33318  1.0000
  C   C4111     1.0  0.56693  0.13569  0.25692  1.0000
  C   C4112     1.0  0.62168  0.14950  0.31425  1.0000
  C   C4113     1.0  0.51096  0.10295  0.43321  1.0000
  C   C4114     1.0  0.52511  0.09865  0.44656  1.0000
  C   C4115     1.0  0.49597  0.12504  0.45634  1.0000
  C   C4116     1.0  0.50777  0.12163  0.46894  1.0000
  C   C4117     1.0  0.54126  0.08307  0.45342  1.0000
  C   C4118     1.0  0.58677  0.11381  0.49882  1.0000
  C   C4119     1.0  0.53032  0.11602  0.40619  1.0000
  C   C4120     1.0  0.58821  0.13962  0.47731  1.0000
  C   C4121     1.0  0.54501  0.07495  0.44303  1.0000
  C   C4122     1.0  0.54151  0.13476  0.56749  1.0000
  C   C4123     1.0  0.49830  0.14536  0.53657  1.0000
  C   C4124     1.0  0.52147  0.14602  0.57558  1.0000
  C   C4125     1.0  0.53056  0.09200  0.50652  1.0000
  C   C4126     1.0  0.55703  0.13474  0.56378  1.0000
  C   C4127     1.0  0.56074  0.11494  0.54159  1.0000
  C   C4128     1.0  0.55107  0.13453  0.51283  1.0000
  C   C4129     1.0  0.47796  0.08586  0.56161  1.0000
  C   C4130     1.0  0.54120  0.12103  0.59265  1.0000
  C   C4131     1.0  0.49774  0.11940  0.63468  1.0000
  C   C4132     1.0  0.52530  0.14235  0.66187  1.0000
  C   C4133     1.0  0.53604  0.09142  0.62589  1.0000
  C   C4134     1.0  0.57730  0.10147  0.68446  1.0000
  C   C4135     1.0  0.56594  0.13443  0.60684  1.0000
  C   C4136     1.0  0.60555  0.15251  0.62337  1.0000
  C   C4137     1.0  0.48919  0.08967  0.70585  1.0000
  C   C4138     1.0  0.52720  0.08831  0.71687  1.0000
  C   C4139     1.0  0.49328  0.13984  0.74294  1.0000
  C   C4140     1.0  0.52296  0.13183  0.79699  1.0000
  C   C4141     1.0  0.54836  0.10977  0.79343  1.0000
  C   C4142     1.0  0.59851  0.10205  0.79292  1.0000
  C   C4143     1.0  0.57301  0.12802  0.69618  1.0000
  C   C4144     1.0  0.53154  0.14478  0.74542  1.0000
  C   C4145     1.0  0.52006  0.08036  0.82617  1.0000
  C   C4146     1.0  0.55628  0.08978  0.81795  1.0000
  C   C4147     1.0  0.48074  0.12767  0.92404  1.0000
  C   C4148     1.0  0.50963  0.14036  0.86638  1.0000
  C   C4149     1.0  0.52766  0.10430  0.84053  1.0000
  C   C4150     1.0  0.56074  0.10480  0.83662  1.0000
  C   C4151     1.0  0.57517  0.12379  0.80148  1.0000
  C   C4152     1.0  0.55929  0.13442  0.81009  1.0000
  C   C4153     1.0  0.43863  0.07260  0.89833  1.0000
  C   C4154     1.0  0.48753  0.09808  0.94439  1.0000
  C   C4155     1.0  0.50056  0.13107  0.96519  1.0000
  C   C4156     1.0  0.54474  0.16355  0.96724  1.0000
  C   C4157     1.0  0.50934  0.10193  0.93929  1.0000
  C   C4158     1.0  0.63240  0.10581  0.97217  1.0000
  C   C4159     1.0  0.58416  0.11424  0.93411  1.0000
  C   C4160     1.0  0.62105  0.13369  0.89746  1.0000
  C   C4161     1.0  0.49028  0.13418  0.99536  1.0000
  C   C4162     1.0  0.50499  0.19664  0.04228  1.0000
  C   C4163     1.0  0.48337  0.18176  0.05060  1.0000
  C   C4164     1.0  0.54646  0.22254  0.03577  1.0000
  C   C4165     1.0  0.54465  0.14510  0.06290  1.0000
  C   C4166     1.0  0.53987  0.18842  0.07508  1.0000
  C   C4167     1.0  0.54936  0.18674  0.95837  1.0000
  C   C4168     1.0  0.60000  0.21531  0.98457  1.0000
  C   C4169     1.0  0.46557  0.14952  0.11173  1.0000
  C   C4170     1.0  0.49750  0.18686  0.13711  1.0000
  C   C4171     1.0  0.47829  0.18251  0.14683  1.0000
  C   C4172     1.0  0.50309  0.20038  0.22604  1.0000
  C   C4173     1.0  0.55568  0.14921  0.13329  1.0000
  C   C4174     1.0  0.53605  0.19922  0.16837  1.0000
  C   C4175     1.0  0.54403  0.21045  0.10218  1.0000
  C   C4176     1.0  0.58572  0.20986  0.10247  1.0000
  C   C4177     1.0  0.46655  0.12162  0.17041  1.0000
  C   C4178     1.0  0.51742  0.18899  0.22512  1.0000
  C   C4179     1.0  0.48329  0.20751  0.28326  1.0000
  C   C4180     1.0  0.55611  0.19946  0.24327  1.0000
  C   C4181     1.0  0.52409  0.16711  0.29479  1.0000
  C   C4182     1.0  0.52660  0.16903  0.23906  1.0000
  C   C4183     1.0  0.55085  0.19243  0.18159  1.0000
  C   C4184     1.0  0.62899  0.20173  0.23823  1.0000
  C   C4185     1.0  0.51237  0.15875  0.26135  1.0000
  C   C4186     1.0  0.53446  0.17353  0.34281  1.0000
  C   C4187     1.0  0.48032  0.19585  0.33009  1.0000
  C   C4188     1.0  0.51915  0.21046  0.35527  1.0000
  C   C4189     1.0  0.59441  0.13390  0.36138  1.0000
  C   C4190     1.0  0.59067  0.17858  0.37812  1.0000
  C   C4191     1.0  0.56005  0.18829  0.31363  1.0000
  C   C4192     1.0  0.54876  0.19302  0.33816  1.0000
  C   C4193     1.0  0.50292  0.12783  0.44677  1.0000
  C   C4194     1.0  0.55561  0.16538  0.41390  1.0000
  C   C4195     1.0  0.48974  0.18342  0.45451  1.0000
  C   C4196     1.0  0.52006  0.19731  0.47513  1.0000
  C   C4197     1.0  0.52908  0.13931  0.43787  1.0000
  C   C4198     1.0  0.60277  0.17012  0.49379  1.0000
  C   C4199     1.0  0.53066  0.18130  0.42887  1.0000
  C   C4200     1.0  0.60191  0.18073  0.44055  1.0000
  C   C4201     1.0  0.47203  0.15794  0.49997  1.0000
  C   C4202     1.0  0.51942  0.18183  0.52704  1.0000
  C   C4203     1.0  0.51480  0.19014  0.55360  1.0000
  C   C4204     1.0  0.54165  0.20978  0.54205  1.0000
  C   C4205     1.0  0.54457  0.15312  0.57554  1.0000
  C   C4206     1.0  0.58376  0.15990  0.59296  1.0000
  C   C4207     1.0  0.54563  0.18078  0.50098  1.0000
  C   C4208     1.0  0.61978  0.19910  0.54806  1.0000
  C   C4209     1.0  0.51262  0.16627  0.60057  1.0000
  C   C4210     1.0  0.51145  0.15655  0.63041  1.0000
  C   C4211     1.0  0.49267  0.15319  0.69697  1.0000
  C   C4212     1.0  0.53109  0.19736  0.67301  1.0000
  C   C4213     1.0  0.54190  0.16196  0.65378  1.0000
  C   C4214     1.0  0.58734  0.15356  0.69302  1.0000
  C   C4215     1.0  0.54316  0.17984  0.57441  1.0000
  C   C4216     1.0  0.55552  0.18623  0.59559  1.0000
  C   C4217     1.0  0.48652  0.15595  0.72761  1.0000
  C   C4218     1.0  0.50203  0.18869  0.74123  1.0000
  C   C4219     1.0  0.50738  0.19467  0.74436  1.0000
  C   C4220     1.0  0.53413  0.19345  0.76351  1.0000
  C   C4221     1.0  0.51472  0.12871  0.75523  1.0000
  C   C4222     1.0  0.60050  0.13903  0.80010  1.0000
  C   C4223     1.0  0.59580  0.19307  0.63062  1.0000
  C   C4224     1.0  0.56433  0.19360  0.73341  1.0000
  C   C4225     1.0  0.50519  0.16660  0.79409  1.0000
  C   C4226     1.0  0.54553  0.16143  0.83923  1.0000
  C   C4227     1.0  0.50368  0.18744  0.83294  1.0000
  C   C4228     1.0  0.55329  0.21456  0.88811  1.0000
  C   C4229     1.0  0.50665  0.17049  0.88372  1.0000
  C   C4230     1.0  0.54744  0.17350  0.86747  1.0000
  C   C4231     1.0  0.55236  0.19289  0.78838  1.0000
  C   C4232     1.0  0.53907  0.21478  0.83534  1.0000
  C   C4233     1.0  0.52369  0.15186  0.90910  1.0000
  C   C4234     1.0  0.54489  0.15054  0.92763  1.0000
  C   C4235     1.0  0.47269  0.18566  0.93961  1.0000
  C   C4236     1.0  0.51871  0.19705  0.97758  1.0000
  C   C4237     1.0  0.54466  0.13698  0.95383  1.0000
  C   C4238     1.0  0.61443  0.18345  0.96143  1.0000
  C   C4239     1.0  0.55020  0.18645  0.87383  1.0000
  C   C4240     1.0  0.57113  0.18623  0.95647  1.0000
  C   C4241     1.0  0.53893  0.23631  0.01846  1.0000
  C   C4242     1.0  0.55553  0.22718  0.01563  1.0000
  C   C4243     1.0  0.53412  0.26129  0.09401  1.0000
  C   C4244     1.0  0.54592  0.25440  0.06257  1.0000
  C   C4245     1.0  0.56493  0.23845  0.04308  1.0000
  C   C4246     1.0  0.59568  0.24567  0.09495  1.0000
  C   C4247     1.0  0.51987  0.24443  0.99383  1.0000
  C   C4248     1.0  0.55012  0.26663  0.01577  1.0000
  C   C4249     1.0  0.45974  0.21807  0.08610  1.0000
  C   C4250     1.0  0.52818  0.21121  0.14277  1.0000
  C   C4251     1.0  0.50424  0.26386  0.15701  1.0000
  C   C4252     1.0  0.53549  0.27168  0.17520  1.0000
  C   C4253     1.0  0.54875  0.22029  0.16666  1.0000
  C   C4254     1.0  0.57534  0.24288  0.18088  1.0000
  C   C4255     1.0  0.55939  0.28609  0.13235  1.0000
  C   C4256     1.0  0.60642  0.26236  0.12555  1.0000
  C   C4257     1.0  0.49239  0.20468  0.18006  1.0000
  C   C4258     1.0  0.49764  0.23313  0.21056  1.0000
  C   C4259     1.0  0.48929  0.24918  0.25064  1.0000
  C   C4260     1.0  0.47046  0.27653  0.26828  1.0000
  C   C4261     1.0  0.54028  0.21228  0.26058  1.0000
  C   C4262     1.0  0.59755  0.22984  0.26697  1.0000
  C   C4263     1.0  0.55948  0.25490  0.23064  1.0000
  C   C4264     1.0  0.55021  0.25882  0.25372  1.0000
  C   C4265     1.0  0.52472  0.19852  0.28839  1.0000
  C   C4266     1.0  0.48299  0.22543  0.31284  1.0000
  C   C4267     1.0  0.53298  0.25544  0.35692  1.0000
  C   C4268     1.0  0.51553  0.27488  0.36136  1.0000
  C   C4269     1.0  0.58063  0.22612  0.34386  1.0000
  C   C4270     1.0  0.55031  0.23280  0.38669  1.0000
  C   C4271     1.0  0.54728  0.25707  0.33706  1.0000
  C   C4272     1.0  0.62428  0.25466  0.33882  1.0000
  C   C4273     1.0  0.53801  0.21360  0.41577  1.0000
  C   C4274     1.0  0.51749  0.22340  0.41813  1.0000
  C   C4275     1.0  0.51944  0.24911  0.44763  1.0000
  C   C4276     1.0  0.50029  0.26130  0.45151  1.0000
  C   C4277     1.0  0.52356  0.21718  0.44489  1.0000
  C   C4278     1.0  0.55940  0.24660  0.49243  1.0000
  C   C4279     1.0  0.58861  0.23794  0.34810  1.0000
  C   C4280     1.0  0.58490  0.26301  0.42981  1.0000
  C   C4281     1.0  0.53868  0.22255  0.49089  1.0000
  C   C4282     1.0  0.47217  0.25597  0.51966  1.0000
  C   C4283     1.0  0.46856  0.24113  0.56560  1.0000
  C   C4284     1.0  0.49436  0.26933  0.59669  1.0000
  C   C4285     1.0  0.55975  0.18645  0.54628  1.0000
  C   C4286     1.0  0.57673  0.23889  0.58441  1.0000
  C   C4287     1.0  0.53081  0.23079  0.51598  1.0000
  C   C4288     1.0  0.57398  0.26432  0.55455  1.0000
  C   C4289     1.0  0.50891  0.23257  0.63237  1.0000
  C   C4290     1.0  0.51398  0.23790  0.63877  1.0000
  C   C4291     1.0  0.49575  0.24683  0.62081  1.0000
  C   C4292     1.0  0.47273  0.27420  0.69779  1.0000
  C   C4293     1.0  0.56156  0.21096  0.65002  1.0000
  C   C4294     1.0  0.55948  0.25095  0.68065  1.0000
  C   C4295     1.0  0.55527  0.26209  0.62228  1.0000
  C   C4296     1.0  0.59888  0.27448  0.60985  1.0000
  C   C4297     1.0  0.49824  0.22235  0.72926  1.0000
  C   C4298     1.0  0.54669  0.25338  0.73463  1.0000
  C   C4299     1.0  0.49408  0.24222  0.73781  1.0000
  C   C4300     1.0  0.56477  0.26166  0.80425  1.0000
  C   C4301     1.0  0.52515  0.23059  0.77431  1.0000
  C   C4302     1.0  0.59003  0.19821  0.76044  1.0000
  C   C4303     1.0  0.53962  0.22729  0.68524  1.0000
  C   C4304     1.0  0.55451  0.26522  0.72967  1.0000
  C   C4305     1.0  0.50653  0.24037  0.79531  1.0000
  C   C4306     1.0  0.54567  0.23370  0.82689  1.0000
  C   C4307     1.0  0.51039  0.25495  0.85138  1.0000
  C   C4308     1.0  0.53386  0.26748  0.84885  1.0000
  C   C4309     1.0  0.57081  0.23126  0.82572  1.0000
  C   C4310     1.0  0.57308  0.21667  0.86329  1.0000
  C   C4311     1.0  0.56972  0.25226  0.82251  1.0000
  C   C4312     1.0  0.55838  0.28462  0.79412  1.0000
  C   C4313     1.0  0.49395  0.21471  0.89084  1.0000
  C   C4314     1.0  0.53899  0.22358  0.89605  1.0000
  C   C4315     1.0  0.49922  0.25074  0.99403  1.0000
  C   C4316     1.0  0.51876  0.26096  0.98890  1.0000
  C   C4317     1.0  0.56599  0.22183  0.94253  1.0000
  C   C4318     1.0  0.54768  0.22736  0.98156  1.0000
  C   C4319     1.0  0.55822  0.24705  0.86696  1.0000
  C   C4320     1.0  0.58818  0.25509  0.89556  1.0000
  C   C4321     1.0  0.53549  0.27391  0.97799  1.0000
  C   C4322     1.0  0.56698  0.30810  0.01258  1.0000
  C   C4323     1.0  0.50021  0.31697  0.09460  1.0000
  C   C4324     1.0  0.52237  0.33101  0.12211  1.0000
  C   C4325     1.0  0.55553  0.28631  0.03347  1.0000
  C   C4326     1.0  0.60555  0.29461  0.02279  1.0000
  C   C4327     1.0  0.55440  0.30919  0.99451  1.0000
  C   C4328     1.0  0.56438  0.32414  0.01437  1.0000
  C   C4329     1.0  0.50908  0.29756  0.07445  1.0000
  C   C4330     1.0  0.52595  0.33286  0.12265  1.0000
  C   C4331     1.0  0.54683  0.30390  0.17313  1.0000
  C   C4332     1.0  0.54441  0.33916  0.20503  1.0000
  C   C4333     1.0  0.54450  0.28499  0.16736  1.0000
  C   C4334     1.0  0.57953  0.28915  0.14641  1.0000
  C   C4335     1.0  0.53777  0.30686  0.07778  1.0000
  C   C4336     1.0  0.54578  0.31764  0.11432  1.0000
  C   C4337     1.0  0.45940  0.28285  0.19583  1.0000
  C   C4338     1.0  0.52481  0.29981  0.23386  1.0000
  C   C4339     1.0  0.49401  0.28462  0.26671  1.0000
  C   C4340     1.0  0.53579  0.31344  0.26717  1.0000
  C   C4341     1.0  0.52491  0.30512  0.29686  1.0000
  C   C4342     1.0  0.61009  0.29619  0.26598  1.0000
  C   C4343     1.0  0.56430  0.31491  0.17027  1.0000
  C   C4344     1.0  0.57382  0.33140  0.21101  1.0000
  C   C4345     1.0  0.49518  0.28587  0.30512  1.0000
  C   C4346     1.0  0.51845  0.29670  0.30013  1.0000
  C   C4347     1.0  0.47937  0.30923  0.34588  1.0000
  C   C4348     1.0  0.55121  0.33607  0.37820  1.0000
  C   C4349     1.0  0.59207  0.30425  0.33111  1.0000
  C   C4350     1.0  0.53159  0.29871  0.37620  1.0000
  C   C4351     1.0  0.52667  0.32175  0.33049  1.0000
  C   C4352     1.0  0.53342  0.32725  0.31671  1.0000
  C   C4353     1.0  0.50162  0.25270  0.41845  1.0000
  C   C4354     1.0  0.53724  0.28738  0.37526  1.0000
  C   C4355     1.0  0.50977  0.29831  0.42118  1.0000
  C   C4356     1.0  0.52399  0.34881  0.42008  1.0000
  C   C4357     1.0  0.52593  0.26777  0.41544  1.0000
  C   C4358     1.0  0.57535  0.29431  0.47371  1.0000
  C   C4359     1.0  0.52922  0.31881  0.39691  1.0000
  C   C4360     1.0  0.56781  0.31251  0.38670  1.0000
  C   C4361     1.0  0.52369  0.27136  0.51146  1.0000
  C   C4362     1.0  0.51318  0.27921  0.50248  1.0000
  C   C4363     1.0  0.51965  0.28866  0.54880  1.0000
  C   C4364     1.0  0.53377  0.34104  0.61123  1.0000
  C   C4365     1.0  0.53022  0.27498  0.52473  1.0000
  C   C4366     1.0  0.54290  0.29342  0.60170  1.0000
  C   C4367     1.0  0.55544  0.29656  0.51689  1.0000
  C   C4368     1.0  0.58101  0.33921  0.53432  1.0000
  C   C4369     1.0  0.51261  0.28286  0.59098  1.0000
  C   C4370     1.0  0.53865  0.30138  0.62894  1.0000
  C   C4371     1.0  0.48987  0.31636  0.65563  1.0000
  C   C4372     1.0  0.52147  0.32039  0.65148  1.0000
  C   C4373     1.0  0.56105  0.29448  0.59040  1.0000
  C   C4374     1.0  0.57347  0.30436  0.65307  1.0000
  C   C4375     1.0  0.52917  0.32330  0.62279  1.0000
  C   C4376     1.0  0.60362  0.33082  0.64146  1.0000
  C   C4377     1.0  0.44967  0.29632  0.69108  1.0000
  C   C4378     1.0  0.50257  0.28079  0.74039  1.0000
  C   C4379     1.0  0.48258  0.32241  0.72073  1.0000
  C   C4380     1.0  0.55001  0.32488  0.76348  1.0000
  C   C4381     1.0  0.57292  0.30243  0.74130  1.0000
  C   C4382     1.0  0.57628  0.29598  0.72748  1.0000
  C   C4383     1.0  0.53987  0.33762  0.66363  1.0000
  C   C4384     1.0  0.56836  0.32868  0.69380  1.0000
  C   C4385     1.0  0.52812  0.27173  0.77682  1.0000
  C   C4386     1.0  0.50838  0.29684  0.82897  1.0000
  C   C4387     1.0  0.47085  0.29373  0.82804  1.0000
  C   C4388     1.0  0.54961  0.32185  0.81746  1.0000
  C   C4389     1.0  0.52372  0.26139  0.82181  1.0000
  C   C4390     1.0  0.59011  0.28760  0.87352  1.0000
  C   C4391     1.0  0.51564  0.31346  0.80940  1.0000
  C   C4392     1.0  0.59587  0.30816  0.79566  1.0000
  C   C4393     1.0  0.49968  0.29593  0.89715  1.0000
  C   C4394     1.0  0.50221  0.33419  0.89093  1.0000
  C   C4395     1.0  0.48470  0.31315  0.95785  1.0000
  C   C4396     1.0  0.48570  0.30686  0.95426  1.0000
  C   C4397     1.0  0.54887  0.28397  0.96962  1.0000
  C   C4398     1.0  0.58749  0.29215  0.94723  1.0000
  C   C4399     1.0  0.52164  0.31000  0.87593  1.0000
  C   C4400     1.0  0.57969  0.34281  0.92591  1.0000
  C   C4401     1.0  0.45918  0.35951  0.98828  1.0000
  C   C4402     1.0  0.48818  0.36184  0.99803  1.0000
  C   C4403     1.0  0.52557  0.37480  0.02793  1.0000
  C   C4404     1.0  0.53476  0.39182  0.07192  1.0000
  C   C4405     1.0  0.56190  0.34019  0.05518  1.0000
  C   C4406     1.0  0.58493  0.34839  0.08798  1.0000
  C   C4407     1.0  0.53703  0.39127  0.98409  1.0000
  C   C4408     1.0  0.58232  0.42003  0.04844  1.0000
  C   C4409     1.0  0.48553  0.33832  0.11326  1.0000
  C   C4410     1.0  0.54262  0.38176  0.12576  1.0000
  C   C4411     1.0  0.50221  0.38349  0.17502  1.0000
  C   C4412     1.0  0.51691  0.37389  0.18786  1.0000
  C   C4413     1.0  0.58144  0.34133  0.14508  1.0000
  C   C4414     1.0  0.60036  0.36352  0.19049  1.0000
  C   C4415     1.0  0.56467  0.37073  0.12867  1.0000
  C   C4416     1.0  0.57498  0.37572  0.11671  1.0000
  C   C4417     1.0  0.50858  0.34042  0.20452  1.0000
  C   C4418     1.0  0.48111  0.34148  0.23041  1.0000
  C   C4419     1.0  0.54009  0.35288  0.22004  1.0000
  C   C4420     1.0  0.53124  0.37581  0.24957  1.0000
  C   C4421     1.0  0.54756  0.33086  0.26145  1.0000
  C   C4422     1.0  0.58907  0.36764  0.23010  1.0000
  C   C4423     1.0  0.56149  0.37783  0.19955  1.0000
  C   C4424     1.0  0.60138  0.39657  0.23637  1.0000
  C   C4425     1.0  0.48637  0.32695  0.29674  1.0000
  C   C4426     1.0  0.48993  0.37151  0.32315  1.0000
  C   C4427     1.0  0.47976  0.36003  0.33486  1.0000
  C   C4428     1.0  0.53880  0.39537  0.38116  1.0000
  C   C4429     1.0  0.60293  0.34430  0.27144  1.0000
  C   C4430     1.0  0.57697  0.36015  0.38085  1.0000
  C   C4431     1.0  0.55064  0.35289  0.31488  1.0000
  C   C4432     1.0  0.58506  0.37731  0.32989  1.0000
  C   C4433     1.0  0.53080  0.31717  0.38222  1.0000
  C   C4434     1.0  0.54533  0.36488  0.43857  1.0000
  C   C4435     1.0  0.50399  0.39102  0.50960  1.0000
  C   C4436     1.0  0.51754  0.36609  0.45391  1.0000
  C   C4437     1.0  0.58083  0.34709  0.47434  1.0000
  C   C4438     1.0  0.56772  0.37590  0.47837  1.0000
  C   C4439     1.0  0.56249  0.38376  0.45624  1.0000
  C   C4440     1.0  0.60550  0.39777  0.40421  1.0000
  C   C4441     1.0  0.52508  0.33340  0.53904  1.0000
  C   C4442     1.0  0.52026  0.36191  0.50305  1.0000
  C   C4443     1.0  0.52482  0.37514  0.53050  1.0000
  C   C4444     1.0  0.53178  0.39389  0.54120  1.0000
  C   C4445     1.0  0.58080  0.33608  0.55496  1.0000
  C   C4446     1.0  0.55522  0.35616  0.58841  1.0000
  C   C4447     1.0  0.53439  0.36554  0.51753  1.0000
  C   C4448     1.0  0.57374  0.39377  0.50456  1.0000
  C   C4449     1.0  0.49609  0.33771  0.59637  1.0000
  C   C4450     1.0  0.50813  0.33373  0.65372  1.0000
  C   C4451     1.0  0.51666  0.35615  0.66503  1.0000
  C   C4452     1.0  0.55527  0.39246  0.64070  1.0000
  C   C4453     1.0  0.49225  0.34667  0.69938  1.0000
  C   C4454     1.0  0.59123  0.32737  0.68760  1.0000
  C   C4455     1.0  0.56335  0.36303  0.61581  1.0000
  C   C4456     1.0  0.58270  0.39980  0.61391  1.0000
  C   C4457     1.0  0.51031  0.33420  0.69220  1.0000
  C   C4458     1.0  0.52406  0.35264  0.72440  1.0000
  C   C4459     1.0  0.52804  0.35536  0.71499  1.0000
  C   C4460     1.0  0.53909  0.39419  0.79492  1.0000
  C   C4461     1.0  0.55700  0.35268  0.70468  1.0000
  C   C4462     1.0  0.58997  0.35467  0.76996  1.0000
  C   C4463     1.0  0.52088  0.36772  0.72112  1.0000
  C   C4464     1.0  0.53869  0.39827  0.68112  1.0000
  C   C4465     1.0  0.52030  0.35251  0.78334  1.0000
  C   C4466     1.0  0.51724  0.34640  0.79171  1.0000
  C   C4467     1.0  0.50899  0.37088  0.85065  1.0000
  C   C4468     1.0  0.50155  0.39007  0.87879  1.0000
  C   C4469     1.0  0.56208  0.33255  0.86718  1.0000
  C   C4470     1.0  0.57647  0.36339  0.91287  1.0000
  C   C4471     1.0  0.56257  0.35719  0.79759  1.0000
  C   C4472     1.0  0.61903  0.40163  0.83433  1.0000
  C   C4473     1.0  0.49689  0.33458  0.91148  1.0000
  C   C4474     1.0  0.51617  0.36938  0.89228  1.0000
  C   C4475     1.0  0.44165  0.37110  0.93591  1.0000
  C   C4476     1.0  0.53115  0.36965  0.94179  1.0000
  C   C4477     1.0  0.57432  0.34898  0.95307  1.0000
  C   C4478     1.0  0.58973  0.36509  0.94409  1.0000
  C   C4479     1.0  0.55955  0.36411  0.87959  1.0000
  C   C4480     1.0  0.55712  0.40245  0.89851  1.0000
  C   C4481     1.0  0.50776  0.39682  0.95000  1.0000
  C   C4482     1.0  0.52461  0.41547  0.02781  1.0000
  C   C4483     1.0  0.49964  0.42673  0.04813  1.0000
  C   C4484     1.0  0.49559  0.44018  0.03662  1.0000
  C   C4485     1.0  0.53817  0.40517  0.04355  1.0000
  C   C4486     1.0  0.58430  0.39655  0.05127  1.0000
  C   C4487     1.0  0.55746  0.40716  0.02163  1.0000
  C   C4488     1.0  0.53572  0.44153  0.96704  1.0000
  C   C4489     1.0  0.49127  0.42190  0.11257  1.0000
  C   C4490     1.0  0.57151  0.41305  0.12926  1.0000
  C   C4491     1.0  0.51589  0.43176  0.15681  1.0000
  C   C4492     1.0  0.50424  0.45719  0.17698  1.0000
  C   C4493     1.0  0.49288  0.40446  0.13078  1.0000
  C   C4494     1.0  0.59346  0.41886  0.17029  1.0000
  C   C4495     1.0  0.52082  0.44091  0.09899  1.0000
  C   C4496     1.0  0.59020  0.48377  0.11093  1.0000
  C   C4497     1.0  0.52197  0.40843  0.22363  1.0000
  C   C4498     1.0  0.55986  0.41906  0.21764  1.0000
  C   C4499     1.0  0.48530  0.43410  0.28008  1.0000
  C   C4500     1.0  0.47888  0.43921  0.26316  1.0000
  C   C4501     1.0  0.56814  0.39918  0.23376  1.0000
  C   C4502     1.0  0.55369  0.43225  0.25394  1.0000
  C   C4503     1.0  0.56111  0.41800  0.17361  1.0000
  C   C4504     1.0  0.57524  0.44477  0.26294  1.0000
  C   C4505     1.0  0.51662  0.39572  0.24806  1.0000
  C   C4506     1.0  0.53779  0.40264  0.33994  1.0000
  C   C4507     1.0  0.49690  0.41391  0.36699  1.0000
  C   C4508     1.0  0.54582  0.42251  0.38882  1.0000
  C   C4509     1.0  0.57738  0.40228  0.36604  1.0000
  C   C4510     1.0  0.57113  0.41127  0.37520  1.0000
  C   C4511     1.0  0.51856  0.44832  0.31248  1.0000
  C   C4512     1.0  0.55559  0.44469  0.35251  1.0000
  C   C4513     1.0  0.49880  0.41024  0.40236  1.0000
  C   C4514     1.0  0.56187  0.42186  0.39332  1.0000
  C   C4515     1.0  0.48876  0.44470  0.42780  1.0000
  C   C4516     1.0  0.52656  0.44382  0.46932  1.0000
  C   C4517     1.0  0.57978  0.39429  0.42571  1.0000
  C   C4518     1.0  0.59021  0.41722  0.50046  1.0000
  C   C4519     1.0  0.54129  0.41747  0.41449  1.0000
  C   C4520     1.0  0.56338  0.45689  0.43508  1.0000
  C   C4521     1.0  0.49125  0.41342  0.49905  1.0000
  C   C4522     1.0  0.48953  0.42876  0.56099  1.0000
  C   C4523     1.0  0.53358  0.43488  0.56514  1.0000
  C   C4524     1.0  0.55160  0.44013  0.59164  1.0000
  C   C4525     1.0  0.57321  0.43941  0.53546  1.0000
  C   C4526     1.0  0.58989  0.43461  0.63502  1.0000
  C   C4527     1.0  0.50010  0.43479  0.50506  1.0000
  C   C4528     1.0  0.57648  0.43127  0.51957  1.0000
  C   C4529     1.0  0.51780  0.41383  0.61658  1.0000
  C   C4530     1.0  0.54232  0.42405  0.62875  1.0000
  C   C4531     1.0  0.50987  0.44793  0.61771  1.0000
  C   C4532     1.0  0.54012  0.45059  0.66726  1.0000
  C   C4533     1.0  0.57486  0.40585  0.64811  1.0000
  C   C4534     1.0  0.58259  0.41754  0.67260  1.0000
  C   C4535     1.0  0.55020  0.44196  0.63256  1.0000
  C   C4536     1.0  0.55253  0.42897  0.63378  1.0000
  C   C4537     1.0  0.52782  0.40660  0.71731  1.0000
  C   C4538     1.0  0.54384  0.43887  0.74080  1.0000
  C   C4539     1.0  0.50230  0.40731  0.72229  1.0000
  C   C4540     1.0  0.49415  0.43871  0.76288  1.0000
  C   C4541     1.0  0.49391  0.39136  0.73921  1.0000
  C   C4542     1.0  0.57674  0.43517  0.77003  1.0000
  C   C4543     1.0  0.54017  0.43477  0.65588  1.0000
  C   C4544     1.0  0.55476  0.43175  0.73772  1.0000
  C   C4545     1.0  0.49450  0.40319  0.78492  1.0000
  C   C4546     1.0  0.53024  0.41722  0.79465  1.0000
  C   C4547     1.0  0.49470  0.42413  0.83857  1.0000
  C   C4548     1.0  0.53953  0.44334  0.88492  1.0000
  C   C4549     1.0  0.54498  0.41743  0.86276  1.0000
  C   C4550     1.0  0.57287  0.42055  0.87417  1.0000
  C   C4551     1.0  0.54557  0.43308  0.82035  1.0000
  C   C4552     1.0  0.58308  0.46531  0.83138  1.0000
  C   C4553     1.0  0.50184  0.38702  0.91565  1.0000
  C   C4554     1.0  0.52067  0.42934  0.91574  1.0000
  C   C4555     1.0  0.50611  0.43537  0.94760  1.0000
  C   C4556     1.0  0.47164  0.43393  0.97705  1.0000
  C   C4557     1.0  0.52837  0.40046  0.93913  1.0000
  C   C4558     1.0  0.51913  0.41248  0.98728  1.0000
  C   C4559     1.0  0.55323  0.45285  0.86481  1.0000
  C   C4560     1.0  0.59929  0.45217  0.93875  1.0000
  C   C4561     1.0  0.48516  0.45349  0.03381  1.0000
  C   C4562     1.0  0.50286  0.47726  0.00125  1.0000
  C   C4563     1.0  0.49728  0.50430  0.06034  1.0000
  C   C4564     1.0  0.54823  0.51607  0.09050  1.0000
  C   C4565     1.0  0.52861  0.44941  0.07380  1.0000
  C   C4566     1.0  0.58842  0.50306  0.08213  1.0000
  C   C4567     1.0  0.54828  0.52217  0.03134  1.0000
  C   C4568     1.0  0.57021  0.49699  0.98929  1.0000
  C   C4569     1.0  0.49869  0.46683  0.14036  1.0000
  C   C4570     1.0  0.53363  0.48198  0.09152  1.0000
  C   C4571     1.0  0.52591  0.49657  0.19105  1.0000
  C   C4572     1.0  0.54104  0.51901  0.15712  1.0000
  C   C4573     1.0  0.57620  0.44570  0.14762  1.0000
  C   C4574     1.0  0.56662  0.46173  0.20975  1.0000
  C   C4575     1.0  0.57856  0.50821  0.11780  1.0000
  C   C4576     1.0  0.55568  0.50942  0.15199  1.0000
  C   C4577     1.0  0.47985  0.47588  0.22167  1.0000
  C   C4578     1.0  0.52986  0.48453  0.20081  1.0000
  C   C4579     1.0  0.51099  0.48810  0.28602  1.0000
  C   C4580     1.0  0.50208  0.52291  0.28209  1.0000
  C   C4581     1.0  0.54295  0.45549  0.23725  1.0000
  C   C4582     1.0  0.58941  0.49147  0.30119  1.0000
  C   C4583     1.0  0.55885  0.48631  0.22104  1.0000
  C   C4584     1.0  0.58337  0.49999  0.26753  1.0000
  C   C4585     1.0  0.50806  0.45180  0.32688  1.0000
  C   C4586     1.0  0.59673  0.48238  0.30767  1.0000
  C   C4587     1.0  0.48323  0.47011  0.35614  1.0000
  C   C4588     1.0  0.57949  0.52310  0.37485  1.0000
  C   C4589     1.0  0.53604  0.47428  0.38271  1.0000
  C   C4590     1.0  0.56065  0.46395  0.37464  1.0000
  C   C4591     1.0  0.57873  0.47540  0.29483  1.0000
  C   C4592     1.0  0.55135  0.49592  0.33552  1.0000
  C   C4593     1.0  0.50431  0.43206  0.38917  1.0000
  C   C4594     1.0  0.53942  0.47904  0.41740  1.0000
  C   C4595     1.0  0.50632  0.49046  0.48058  1.0000
  C   C4596     1.0  0.53044  0.51963  0.47702  1.0000
  C   C4597     1.0  0.52611  0.45246  0.44529  1.0000
  C   C4598     1.0  0.58071  0.43253  0.51039  1.0000
  C   C4599     1.0  0.51822  0.49777  0.38772  1.0000
  C   C4600     1.0  0.59363  0.49702  0.40687  1.0000
  C   C4601     1.0  0.49768  0.45365  0.49308  1.0000
  C   C4602     1.0  0.49352  0.48082  0.53227  1.0000
  C   C4603     1.0  0.45652  0.50537  0.56076  1.0000
  C   C4604     1.0  0.51733  0.51754  0.59903  1.0000
  C   C4605     1.0  0.54243  0.46711  0.55679  1.0000
  C   C4606     1.0  0.58056  0.50256  0.57808  1.0000
  C   C4607     1.0  0.59004  0.50051  0.46802  1.0000
  C   C4608     1.0  0.56782  0.51888  0.55583  1.0000
  C   C4609     1.0  0.52221  0.44735  0.61160  1.0000
  C   C4610     1.0  0.51869  0.47679  0.62197  1.0000
  C   C4611     1.0  0.52526  0.48929  0.64799  1.0000
  C   C4612     1.0  0.54952  0.50792  0.72124  1.0000
  C   C4613     1.0  0.53527  0.45982  0.66570  1.0000
  C   C4614     1.0  0.54889  0.46606  0.68663  1.0000
  C   C4615     1.0  0.53455  0.50348  0.58044  1.0000
  C   C4616     1.0  0.58525  0.51931  0.63218  1.0000
  C   C4617     1.0  0.48535  0.45903  0.70305  1.0000
  C   C4618     1.0  0.54899  0.47135  0.71318  1.0000
  C   C4619     1.0  0.46479  0.49765  0.74346  1.0000
  C   C4620     1.0  0.49782  0.52005  0.81271  1.0000
  C   C4621     1.0  0.53786  0.47434  0.73367  1.0000
  C   C4622     1.0  0.57746  0.49315  0.80431  1.0000
  C   C4623     1.0  0.53719  0.49856  0.69886  1.0000
  C   C4624     1.0  0.56083  0.49710  0.74746  1.0000
  C   C4625     1.0  0.50604  0.42409  0.77036  1.0000
  C   C4626     1.0  0.55232  0.48449  0.82550  1.0000
  C   C4627     1.0  0.49091  0.49226  0.84241  1.0000
  C   C4628     1.0  0.54846  0.51748  0.87603  1.0000
  C   C4629     1.0  0.56699  0.46860  0.84215  1.0000
  C   C4630     1.0  0.58870  0.46550  0.90009  1.0000
  C   C4631     1.0  0.50589  0.49509  0.82592  1.0000
  C   C4632     1.0  0.58572  0.50915  0.84098  1.0000
  C   C4633     1.0  0.51133  0.48079  0.88426  1.0000
  C   C4634     1.0  0.54818  0.47541  0.93144  1.0000
  C   C4635     1.0  0.47422  0.50580  0.90465  1.0000
  C   C4636     1.0  0.52386  0.50967  0.97926  1.0000
  C   C4637     1.0  0.54864  0.45858  0.97343  1.0000
  C   C4638     1.0  0.54948  0.46852  0.95409  1.0000
  C   C4639     1.0  0.53942  0.50029  0.90802  1.0000
  C   C4640     1.0  0.57565  0.49697  0.94847  1.0000
  C   C4641     1.0  0.53718  0.51758  0.99460  1.0000
  C   C4642     1.0  0.51858  0.53846  0.96083  1.0000
  C   C4643     1.0  0.48788  0.54164  0.03726  1.0000
  C   C4644     1.0  0.50788  0.57935  0.11403  1.0000
  C   C4645     1.0  0.59815  0.52613  0.02446  1.0000
  C   C4646     1.0  0.57298  0.55931  0.07162  1.0000
  C   C4647     1.0  0.54390  0.55647  0.98329  1.0000
  C   C4648     1.0  0.56499  0.54293  0.06109  1.0000
  C   C4649     1.0  0.50521  0.52832  0.11176  1.0000
  C   C4650     1.0  0.54304  0.54022  0.14271  1.0000
  C   C4651     1.0  0.50565  0.54799  0.13683  1.0000
  C   C4652     1.0  0.51787  0.58314  0.18964  1.0000
  C   C4653     1.0  0.55572  0.53242  0.13032  1.0000
  C   C4654     1.0  0.59392  0.56321  0.15246  1.0000
  C   C4655     1.0  0.54416  0.55798  0.09255  1.0000
  C   C4656     1.0  0.54698  0.58296  0.10946  1.0000
  C   C4657     1.0  0.49821  0.51608  0.22834  1.0000
  C   C4658     1.0  0.52994  0.54985  0.21486  1.0000
  C   C4659     1.0  0.48066  0.53022  0.22231  1.0000
  C   C4660     1.0  0.49748  0.56908  0.29810  1.0000
  C   C4661     1.0  0.49664  0.50456  0.23720  1.0000
  C   C4662     1.0  0.56182  0.53821  0.23828  1.0000
  C   C4663     1.0  0.53313  0.54881  0.13214  1.0000
  C   C4664     1.0  0.55876  0.57282  0.22153  1.0000
  C   C4665     1.0  0.45768  0.52259  0.26176  1.0000
  C   C4666     1.0  0.52746  0.53234  0.32512  1.0000
  C   C4667     1.0  0.53582  0.54766  0.36031  1.0000
  C   C4668     1.0  0.52151  0.55021  0.37879  1.0000
  C   C4669     1.0  0.55110  0.54893  0.33626  1.0000
  C   C4670     1.0  0.56365  0.52745  0.35334  1.0000
  C   C4671     1.0  0.54434  0.54781  0.26673  1.0000
  C   C4672     1.0  0.62438  0.58160  0.34062  1.0000
  C   C4673     1.0  0.49245  0.51143  0.42468  1.0000
  C   C4674     1.0  0.53491  0.53587  0.41397  1.0000
  C   C4675     1.0  0.47674  0.54008  0.44606  1.0000
  C   C4676     1.0  0.51617  0.56303  0.48491  1.0000
  C   C4677     1.0  0.52196  0.51682  0.44988  1.0000
  C   C4678     1.0  0.60421  0.56326  0.46556  1.0000
  C   C4679     1.0  0.55058  0.54909  0.40244  1.0000
  C   C4680     1.0  0.53829  0.61460  0.39791  1.0000
  C   C4681     1.0  0.53244  0.53530  0.53887  1.0000
  C   C4682     1.0  0.51611  0.53952  0.53443  1.0000
  C   C4683     1.0  0.44686  0.55121  0.53684  1.0000
  C   C4684     1.0  0.54213  0.55245  0.59661  1.0000
  C   C4685     1.0  0.53667  0.51240  0.51852  1.0000
  C   C4686     1.0  0.58448  0.55855  0.54785  1.0000
  C   C4687     1.0  0.55201  0.57503  0.51095  1.0000
  C   C4688     1.0  0.54191  0.53805  0.48010  1.0000
  C   C4689     1.0  0.50135  0.53022  0.57026  1.0000
  C   C4690     1.0  0.53058  0.53486  0.59183  1.0000
  C   C4691     1.0  0.47630  0.55182  0.64080  1.0000
  C   C4692     1.0  0.53723  0.53907  0.69629  1.0000
  C   C4693     1.0  0.55178  0.52674  0.65674  1.0000
  C   C4694     1.0  0.58752  0.54291  0.68147  1.0000
  C   C4695     1.0  0.58342  0.52026  0.62398  1.0000
  C   C4696     1.0  0.59026  0.56970  0.59208  1.0000
  C   C4697     1.0  0.52553  0.52400  0.76245  1.0000
  C   C4698     1.0  0.52053  0.55517  0.71045  1.0000
  C   C4699     1.0  0.49562  0.54853  0.77149  1.0000
  C   C4700     1.0  0.49669  0.54484  0.76943  1.0000
  C   C4701     1.0  0.54874  0.53016  0.78543  1.0000
  C   C4702     1.0  0.50622  0.53857  0.76023  1.0000
  C   C4703     1.0  0.52959  0.53239  0.69984  1.0000
  C   C4704     1.0  0.58545  0.57405  0.73697  1.0000
  C   C4705     1.0  0.47049  0.51154  0.81355  1.0000
  C   C4706     1.0  0.49939  0.56493  0.85271  1.0000
  C   C4707     1.0  0.49271  0.57199  0.84869  1.0000
  C   C4708     1.0  0.52655  0.57616  0.88074  1.0000
  C   C4709     1.0  0.59343  0.55146  0.83247  1.0000
  C   C4710     1.0  0.55058  0.54227  0.88364  1.0000
  C   C4711     1.0  0.55925  0.53808  0.77706  1.0000
  C   C4712     1.0  0.54841  0.55722  0.82023  1.0000
  C   C4713     1.0  0.49373  0.52774  0.88854  1.0000
  C   C4714     1.0  0.52625  0.54114  0.89989  1.0000
  C   C4715     1.0  0.51671  0.56821  0.92043  1.0000
  C   C4716     1.0  0.56647  0.56598  0.94397  1.0000
  C   C4717     1.0  0.54074  0.52409  0.98435  1.0000
  C   C4718     1.0  0.53589  0.52137  0.00075  1.0000
  C   C4719     1.0  0.55566  0.55364  0.93990  1.0000
  C   C4720     1.0  0.57833  0.58914  0.91252  1.0000
  C   C4721     1.0  0.48817  0.57755  0.01175  1.0000
  C   C4722     1.0  0.52712  0.60118  0.01239  1.0000
  C   C4723     1.0  0.51056  0.63744  0.02223  1.0000
  C   C4724     1.0  0.52969  0.60711  0.06847  1.0000
  C   C4725     1.0  0.54879  0.57689  0.08891  1.0000
  C   C4726     1.0  0.59088  0.61683  0.05351  1.0000
  C   C4727     1.0  0.57137  0.63699  0.00981  1.0000
  C   C4728     1.0  0.59066  0.62453  0.08733  1.0000
  C   C4729     1.0  0.50910  0.60310  0.09176  1.0000
  C   C4730     1.0  0.53978  0.60716  0.14245  1.0000
  C   C4731     1.0  0.49971  0.62532  0.15202  1.0000
  C   C4732     1.0  0.51688  0.03562  0.16010  1.0000
  C   C4733     1.0  0.55135  0.58636  0.13285  1.0000
  C   C4734     1.0  0.55254  0.59809  0.16806  1.0000
  C   C4735     1.0  0.53555  0.61694  0.08188  1.0000
  C   C4736     1.0  0.55764  0.04829  0.15349  1.0000
  C   C4737     1.0  0.48556  0.58086  0.21878  1.0000
  C   C4738     1.0  0.49392  0.57724  0.23075  1.0000
  C   C4739     1.0  0.49796  0.61940  0.24410  1.0000
  C   C4740     1.0  0.50728  0.64552  0.26901  1.0000
  C   C4741     1.0  0.57903  0.56286  0.23681  1.0000
  C   C4742     1.0  0.56558  0.61405  0.25260  1.0000
  C   C4743     1.0  0.55684  0.62765  0.17709  1.0000
  C   C4744     1.0  0.58762  0.62730  0.22531  1.0000
  C   C4745     1.0  0.51570  0.58154  0.30770  1.0000
  C   C4746     1.0  0.54552  0.60424  0.31874  1.0000
  C   C4747     1.0  0.51544  0.62992  0.35548  1.0000
  C   C4748     1.0  0.52923  0.61409  0.37305  1.0000
  C   C4749     1.0  0.54031  0.60605  0.36147  1.0000
  C   C4750     1.0  0.57331  0.59476  0.36680  1.0000
  C   C4751     1.0  0.55475  0.61745  0.28772  1.0000
  C   C4752     1.0  0.57138  0.63340  0.29352  1.0000
  C   C4753     1.0  0.48382  0.59587  0.41158  1.0000
  C   C4754     1.0  0.52607  0.58281  0.43718  1.0000
  C   C4755     1.0  0.51095  0.63405  0.45467  1.0000
  C   C4756     1.0  0.53889  0.63433  0.43153  1.0000
  C   C4757     1.0  0.58893  0.56920  0.42030  1.0000
  C   C4758     1.0  0.56898  0.58907  0.47788  1.0000
  C   C4759     1.0  0.53313  0.60524  0.40436  1.0000
  C   C4760     1.0  0.58750  0.63107  0.39777  1.0000
  C   C4761     1.0  0.51101  0.58671  0.53294  1.0000
  C   C4762     1.0  0.55415  0.60686  0.51649  1.0000
  C   C4763     1.0  0.49199  0.62694  0.55515  1.0000
  C   C4764     1.0  0.50373  0.62734  0.54625  1.0000
  C   C4765     1.0  0.53408  0.59239  0.52853  1.0000
  C   C4766     1.0  0.58015  0.60439  0.53146  1.0000
  C   C4767     1.0  0.57238  0.61693  0.54264  1.0000
  C   C4768     1.0  0.55380  0.63692  0.50253  1.0000
  C   C4769     1.0  0.50190  0.58995  0.60308  1.0000
  C   C4770     1.0  0.50776  0.58675  0.60307  1.0000
  C   C4771     1.0  0.46897  0.61889  0.64194  1.0000
  C   C4772     1.0  0.52878  0.63056  0.69043  1.0000
  C   C4773     1.0  0.53641  0.58420  0.63357  1.0000
  C   C4774     1.0  0.54452  0.58963  0.65590  1.0000
  C   C4775     1.0  0.54815  0.59479  0.63140  1.0000
  C   C4776     1.0  0.53039  0.63990  0.63779  1.0000
  C   C4777     1.0  0.55332  0.58675  0.65447  1.0000
  C   C4778     1.0  0.51149  0.59865  0.69854  1.0000
  C   C4779     1.0  0.47564  0.59777  0.73624  1.0000
  C   C4780     1.0  0.51868  0.61664  0.74190  1.0000
  C   C4781     1.0  0.54804  0.56191  0.76376  1.0000
  C   C4782     1.0  0.57925  0.61435  0.77908  1.0000
  C   C4783     1.0  0.53912  0.61289  0.69788  1.0000
  C   C4784     1.0  0.60484  0.63289  0.69996  1.0000
  C   C4785     1.0  0.48667  0.58884  0.82180  1.0000
  C   C4786     1.0  0.52848  0.58446  0.86174  1.0000
  C   C4787     1.0  0.51081  0.63060  0.86548  1.0000
  C   C4788     1.0  0.54553  0.61575  0.89087  1.0000
  C   C4789     1.0  0.51302  0.57851  0.87728  1.0000
  C   C4790     1.0  0.59790  0.60714  0.85923  1.0000
  C   C4791     1.0  0.51219  0.61547  0.74091  1.0000
  C   C4792     1.0  0.60801  0.61728  0.77839  1.0000
  C   C4793     1.0  0.49045  0.56779  0.92779  1.0000
  C   C4794     1.0  0.50832  0.59520  0.96413  1.0000
  C   C4795     1.0  0.52249  0.59847  0.93136  1.0000
  C   C4796     1.0  0.51838  0.64043  0.95348  1.0000
  C   C4797     1.0  0.55828  0.56753  0.92569  1.0000
  C   C4798     1.0  0.57690  0.61190  0.97478  1.0000
  C   C4799     1.0  0.54239  0.60251  0.87188  1.0000
  C   C4800     1.0  0.56262  0.63525  0.95870  1.0000
  C   C4801     1.0  0.62101  0.04441  0.96991  1.0000
  C   C4802     1.0  0.63572  0.05835  0.00928  1.0000
  C   C4803     1.0  0.59457  0.05606  0.09244  1.0000
  C   C4804     1.0  0.65142  0.06609  0.09086  1.0000
  C   C4805     1.0  0.67331  0.63955  0.06129  1.0000
  C   C4806     1.0  0.68879  0.03841  0.04138  1.0000
  C   C4807     1.0  0.64784  0.04963  0.01256  1.0000
  C   C4808     1.0  0.64893  0.09951  0.03182  1.0000
  C   C4809     1.0  0.59083  0.64481  0.08372  1.0000
  C   C4810     1.0  0.62941  0.05414  0.14620  1.0000
  C   C4811     1.0  0.63121  0.07360  0.14821  1.0000
  C   C4812     1.0  0.62301  0.06730  0.16286  1.0000
  C   C4813     1.0  0.66930  0.64609  0.13722  1.0000
  C   C4814     1.0  0.69969  0.64379  0.19861  1.0000
  C   C4815     1.0  0.64106  0.04980  0.10354  1.0000
  C   C4816     1.0  0.64774  0.09038  0.15066  1.0000
  C   C4817     1.0  0.58998  0.63178  0.20261  1.0000
  C   C4818     1.0  0.63429  0.03686  0.22731  1.0000
  C   C4819     1.0  0.59209  0.09794  0.27725  1.0000
  C   C4820     1.0  0.61803  0.09042  0.23820  1.0000
  C   C4821     1.0  0.68990  0.63494  0.28745  1.0000
  C   C4822     1.0  0.69482  0.04962  0.29367  1.0000
  C   C4823     1.0  0.61226  0.07755  0.21625  1.0000
  C   C4824     1.0  0.64974  0.08115  0.21170  1.0000
  C   C4825     1.0  0.56500  0.63902  0.27708  1.0000
  C   C4826     1.0  0.64476  0.06742  0.34598  1.0000
  C   C4827     1.0  0.59911  0.07073  0.31720  1.0000
  C   C4828     1.0  0.63408  0.08238  0.34781  1.0000
  C   C4829     1.0  0.62985  0.63929  0.37036  1.0000
  C   C4830     1.0  0.72165  0.04991  0.37081  1.0000
  C   C4831     1.0  0.63307  0.04663  0.29297  1.0000
  C   C4832     1.0  0.67417  0.08182  0.31804  1.0000
  C   C4833     1.0  0.61139  0.64143  0.39251  1.0000
  C   C4834     1.0  0.64842  0.04388  0.37970  1.0000
  C   C4835     1.0  0.58156  0.07528  0.45617  1.0000
  C   C4836     1.0  0.60633  0.08458  0.48082  1.0000
  C   C4837     1.0  0.65279  0.04832  0.46482  1.0000
  C   C4838     1.0  0.68060  0.04139  0.46623  1.0000
  C   C4839     1.0  0.63883  0.07207  0.36895  1.0000
  C   C4840     1.0  0.70919  0.09250  0.44636  1.0000
  C   C4841     1.0  0.58834  0.63281  0.51608  1.0000
  C   C4842     1.0  0.61160  0.05981  0.49928  1.0000
  C   C4843     1.0  0.58573  0.05878  0.59281  1.0000
  C   C4844     1.0  0.65367  0.07136  0.54629  1.0000
  C   C4845     1.0  0.64985  0.64130  0.52824  1.0000
  C   C4846     1.0  0.63692  0.05365  0.55684  1.0000
  C   C4847     1.0  0.65798  0.06205  0.52767  1.0000
  C   C4848     1.0  0.64153  0.07102  0.50920  1.0000
  C   C4849     1.0  0.59741  0.62814  0.63473  1.0000
  C   C4850     1.0  0.62732  0.06278  0.62837  1.0000
  C   C4851     1.0  0.63869  0.03639  0.62847  1.0000
  C   C4852     1.0  0.62933  0.07165  0.64859  1.0000
  C   C4853     1.0  0.65054  0.63843  0.64116  1.0000
  C   C4854     1.0  0.69666  0.03730  0.70327  1.0000
  C   C4855     1.0  0.64561  0.05430  0.58473  1.0000
  C   C4856     1.0  0.65938  0.07832  0.61541  1.0000
  C   C4857     1.0  0.60002  0.05158  0.70464  1.0000
  C   C4858     1.0  0.64131  0.04764  0.69390  1.0000
  C   C4859     1.0  0.61076  0.05669  0.77442  1.0000
  C   C4860     1.0  0.67689  0.08341  0.77121  1.0000
  C   C4861     1.0  0.64522  0.63693  0.72586  1.0000
  C   C4862     1.0  0.69368  0.06936  0.77106  1.0000
  C   C4863     1.0  0.66726  0.04751  0.71743  1.0000
  C   C4864     1.0  0.73814  0.09323  0.70519  1.0000
  C   C4865     1.0  0.62820  0.64262  0.79796  1.0000
  C   C4866     1.0  0.59610  0.05351  0.83789  1.0000
  C   C4867     1.0  0.57063  0.05920  0.84046  1.0000
  C   C4868     1.0  0.59855  0.07658  0.83439  1.0000
  C   C4869     1.0  0.65338  0.63429  0.81345  1.0000
  C   C4870     1.0  0.67069  0.04798  0.91510  1.0000
  C   C4871     1.0  0.63260  0.06919  0.78851  1.0000
  C   C4872     1.0  0.68909  0.06566  0.82954  1.0000
  C   C4873     1.0  0.59087  0.04267  0.86484  1.0000
  C   C4874     1.0  0.60576  0.03783  0.90604  1.0000
  C   C4875     1.0  0.61089  0.06366  0.95499  1.0000
  C   C4876     1.0  0.62962  0.06579  0.99809  1.0000
  C   C4877     1.0  0.66446  0.64194  0.94563  1.0000
  C   C4878     1.0  0.63877  0.63625  0.00874  1.0000
  C   C4879     1.0  0.64237  0.05049  0.90408  1.0000
  C   C4880     1.0  0.67812  0.07006  0.93827  1.0000
  C   C4881     1.0  0.61770  0.11167  0.99732  1.0000
  C   C4882     1.0  0.60230  0.13736  0.00460  1.0000
  C   C4883     1.0  0.57600  0.10706  0.08011  1.0000
  C   C4884     1.0  0.61898  0.14717  0.03980  1.0000
  C   C4885     1.0  0.67462  0.10896  0.03307  1.0000
  C   C4886     1.0  0.73513  0.10446  0.09232  1.0000
  C   C4887     1.0  0.65825  0.11557  0.01430  1.0000
  C   C4888     1.0  0.67237  0.12356  0.01003  1.0000
  C   C4889     1.0  0.56694  0.09575  0.11359  1.0000
  C   C4890     1.0  0.63475  0.14823  0.11716  1.0000
  C   C4891     1.0  0.55521  0.13934  0.14408  1.0000
  C   C4892     1.0  0.62819  0.14603  0.17999  1.0000
  C   C4893     1.0  0.66291  0.11439  0.17273  1.0000
  C   C4894     1.0  0.68728  0.09350  0.15515  1.0000
  C   C4895     1.0  0.66403  0.12838  0.06181  1.0000
  C   C4896     1.0  0.68055  0.14714  0.14332  1.0000
  C   C4897     1.0  0.56573  0.08184  0.21028  1.0000
  C   C4898     1.0  0.64736  0.09650  0.22275  1.0000
  C   C4899     1.0  0.62989  0.10726  0.27659  1.0000
  C   C4900     1.0  0.57389  0.14768  0.27460  1.0000
  C   C4901     1.0  0.64830  0.09015  0.29013  1.0000
  C   C4902     1.0  0.69204  0.11242  0.27571  1.0000
  C   C4903     1.0  0.62067  0.11519  0.17055  1.0000
  C   C4904     1.0  0.66734  0.13498  0.19489  1.0000
  C   C4905     1.0  0.59744  0.08493  0.28755  1.0000
  C   C4906     1.0  0.62078  0.11295  0.34405  1.0000
  C   C4907     1.0  0.55902  0.14496  0.39215  1.0000
  C   C4908     1.0  0.62398  0.13625  0.33356  1.0000
  C   C4909     1.0  0.65796  0.11478  0.37596  1.0000
  C   C4910     1.0  0.67980  0.10602  0.38737  1.0000
  C   C4911     1.0  0.63166  0.12206  0.30015  1.0000
  C   C4912     1.0  0.71667  0.15653  0.33811  1.0000
  C   C4913     1.0  0.63396  0.09437  0.36181  1.0000
  C   C4914     1.0  0.64264  0.10798  0.43927  1.0000
  C   C4915     1.0  0.60930  0.12436  0.46515  1.0000
  C   C4916     1.0  0.60918  0.13744  0.48684  1.0000
  C   C4917     1.0  0.61555  0.09786  0.46540  1.0000
  C   C4918     1.0  0.67374  0.11105  0.45797  1.0000
  C   C4919     1.0  0.61829  0.12621  0.39904  1.0000
  C   C4920     1.0  0.66368  0.12695  0.39099  1.0000
  C   C4921     1.0  0.63798  0.08939  0.50393  1.0000
  C   C4922     1.0  0.63198  0.09296  0.51204  1.0000
  C   C4923     1.0  0.64883  0.13328  0.57227  1.0000
  C   C4924     1.0  0.64708  0.14488  0.58888  1.0000
  C   C4925     1.0  0.65055  0.09258  0.50471  1.0000
  C   C4926     1.0  0.67360  0.11529  0.59236  1.0000
  C   C4927     1.0  0.64267  0.13897  0.48202  1.0000
  C   C4928     1.0  0.65294  0.16298  0.53549  1.0000
  C   C4929     1.0  0.60885  0.06315  0.58707  1.0000
  C   C4930     1.0  0.61578  0.11468  0.62314  1.0000
  C   C4931     1.0  0.58880  0.12619  0.66106  1.0000
  C   C4932     1.0  0.62286  0.15578  0.64291  1.0000
  C   C4933     1.0  0.57270  0.07984  0.65975  1.0000
  C   C4934     1.0  0.68412  0.12297  0.67724  1.0000
  C   C4935     1.0  0.64447  0.14080  0.61308  1.0000
  C   C4936     1.0  0.67451  0.16572  0.65621  1.0000
  C   C4937     1.0  0.59456  0.10592  0.68603  1.0000
  C   C4938     1.0  0.65001  0.10197  0.71630  1.0000
  C   C4939     1.0  0.53999  0.12380  0.79644  1.0000
  C   C4940     1.0  0.60345  0.13200  0.76425  1.0000
  C   C4941     1.0  0.66669  0.11449  0.72239  1.0000
  C   C4942     1.0  0.68689  0.12816  0.76987  1.0000
  C   C4943     1.0  0.62713  0.14270  0.71443  1.0000
  C   C4944     1.0  0.71492  0.13611  0.73774  1.0000
  C   C4945     1.0  0.57440  0.10345  0.79465  1.0000
  C   C4946     1.0  0.60712  0.11557  0.83614  1.0000
  C   C4947     1.0  0.58854  0.13877  0.84330  1.0000
  C   C4948     1.0  0.59839  0.12430  0.84233  1.0000
  C   C4949     1.0  0.69972  0.09058  0.87566  1.0000
  C   C4950     1.0  0.66258  0.11488  0.90004  1.0000
  C   C4951     1.0  0.60778  0.12422  0.79927  1.0000
  C   C4952     1.0  0.68490  0.13407  0.84415  1.0000
  C   C4953     1.0  0.53935  0.10648  0.95269  1.0000
  C   C4954     1.0  0.61597  0.13252  0.92909  1.0000
  C   C4955     1.0  0.61293  0.12272  0.94757  1.0000
  C   C4956     1.0  0.62936  0.13552  0.99275  1.0000
  C   C4957     1.0  0.66881  0.07025  0.96110  1.0000
  C   C4958     1.0  0.69270  0.09770  0.99450  1.0000
  C   C4959     1.0  0.67287  0.14345  0.89536  1.0000
  C   C4960     1.0  0.66327  0.12724  0.93940  1.0000
  C   C4961     1.0  0.64130  0.17249  0.00607  1.0000
  C   C4962     1.0  0.62879  0.16950  0.02365  1.0000
  C   C4963     1.0  0.59596  0.19440  0.03045  1.0000
  C   C4964     1.0  0.66013  0.20372  0.08804  1.0000
  C   C4965     1.0  0.64096  0.17284  0.04183  1.0000
  C   C4966     1.0  0.67356  0.19249  0.03688  1.0000
  C   C4967     1.0  0.67626  0.15765  0.01423  1.0000
  C   C4968     1.0  0.66517  0.19680  0.07456  1.0000
  C   C4969     1.0  0.60089  0.15564  0.06131  1.0000
  C   C4970     1.0  0.63329  0.17320  0.11185  1.0000
  C   C4971     1.0  0.58975  0.17396  0.18408  1.0000
  C   C4972     1.0  0.62149  0.19747  0.19832  1.0000
  C   C4973     1.0  0.65758  0.14697  0.14951  1.0000
  C   C4974     1.0  0.69859  0.16396  0.15615  1.0000
  C   C4975     1.0  0.65859  0.19084  0.07948  1.0000
  C   C4976     1.0  0.65860  0.22106  0.10866  1.0000
  C   C4977     1.0  0.58884  0.15220  0.17388  1.0000
  C   C4978     1.0  0.65928  0.18044  0.18275  1.0000
  C   C4979     1.0  0.61651  0.18177  0.25992  1.0000
  C   C4980     1.0  0.68272  0.22211  0.22249  1.0000
  C   C4981     1.0  0.65587  0.15980  0.25543  1.0000
  C   C4982     1.0  0.68937  0.19779  0.25292  1.0000
  C   C4983     1.0  0.67596  0.17304  0.20136  1.0000
  C   C4984     1.0  0.63872  0.20879  0.21985  1.0000
  C   C4985     1.0  0.62807  0.16346  0.31952  1.0000
  C   C4986     1.0  0.63279  0.18410  0.29925  1.0000
  C   C4987     1.0  0.61008  0.20346  0.33344  1.0000
  C   C4988     1.0  0.61760  0.20847  0.39217  1.0000
  C   C4989     1.0  0.65175  0.14613  0.36012  1.0000
  C   C4990     1.0  0.67340  0.19774  0.37335  1.0000
  C   C4991     1.0  0.61579  0.20128  0.30833  1.0000
  C   C4992     1.0  0.68288  0.21204  0.32817  1.0000
  C   C4993     1.0  0.60569  0.15054  0.39920  1.0000
  C   C4994     1.0  0.65966  0.17919  0.42073  1.0000
  C   C4995     1.0  0.60529  0.19857  0.47586  1.0000
  C   C4996     1.0  0.65918  0.20528  0.48918  1.0000
  C   C4997     1.0  0.63866  0.15184  0.41107  1.0000
  C   C4998     1.0  0.70183  0.17209  0.48176  1.0000
  C   C4999     1.0  0.65795  0.18275  0.41023  1.0000
  C   C5000     1.0  0.66249  0.22295  0.43158  1.0000
  C   C5001     1.0  0.60361  0.14584  0.49133  1.0000
  C   C5002     1.0  0.61279  0.18200  0.53402  1.0000
  C   C5003     1.0  0.59987  0.22078  0.58845  1.0000
  C   C5004     1.0  0.61376  0.18070  0.57889  1.0000
  C   C5005     1.0  0.63047  0.16116  0.56030  1.0000
  C   C5006     1.0  0.65348  0.16740  0.60711  1.0000
  C   C5007     1.0  0.66182  0.19882  0.49032  1.0000
  C   C5008     1.0  0.64644  0.20608  0.53343  1.0000
  C   C5009     1.0  0.64142  0.16393  0.59274  1.0000
  C   C5010     1.0  0.59653  0.17472  0.64918  1.0000
  C   C5011     1.0  0.54769  0.17869  0.70396  1.0000
  C   C5012     1.0  0.64134  0.17983  0.64803  1.0000
  C   C5013     1.0  0.66116  0.16152  0.69588  1.0000
  C   C5014     1.0  0.67436  0.14673  0.69129  1.0000
  C   C5015     1.0  0.64304  0.18636  0.56855  1.0000
  C   C5016     1.0  0.67386  0.20387  0.62377  1.0000
  C   C5017     1.0  0.62514  0.16138  0.71417  1.0000
  C   C5018     1.0  0.61102  0.18082  0.71041  1.0000
  C   C5019     1.0  0.60122  0.20008  0.72418  1.0000
  C   C5020     1.0  0.63489  0.17726  0.76577  1.0000
  C   C5021     1.0  0.64151  0.14362  0.75431  1.0000
  C   C5022     1.0  0.68859  0.15111  0.77971  1.0000
  C   C5023     1.0  0.63720  0.20454  0.69714  1.0000
  C   C5024     1.0  0.69117  0.19827  0.69473  1.0000
  C   C5025     1.0  0.60215  0.16239  0.80160  1.0000
  C   C5026     1.0  0.62366  0.17704  0.81881  1.0000
  C   C5027     1.0  0.60933  0.19667  0.84482  1.0000
  C   C5028     1.0  0.61022  0.19317  0.85908  1.0000
  C   C5029     1.0  0.64850  0.16253  0.85314  1.0000
  C   C5030     1.0  0.71552  0.15579  0.86798  1.0000
  C   C5031     1.0  0.66142  0.17854  0.77329  1.0000
  C   C5032     1.0  0.68530  0.17569  0.83222  1.0000
  C   C5033     1.0  0.60701  0.15425  0.89946  1.0000
  C   C5034     1.0  0.62018  0.17810  0.92654  1.0000
  C   C5035     1.0  0.60157  0.18665  0.96453  1.0000
  C   C5036     1.0  0.61774  0.19122  0.96161  1.0000
  C   C5037     1.0  0.65676  0.15217  0.97370  1.0000
  C   C5038     1.0  0.65153  0.19021  0.93042  1.0000
  C   C5039     1.0  0.64553  0.19256  0.91963  1.0000
  C   C5040     1.0  0.70721  0.20821  0.93694  1.0000
  C   C5041     1.0  0.58148  0.20982  0.97475  1.0000
  C   C5042     1.0  0.64454  0.20830  0.04376  1.0000
  C   C5043     1.0  0.63024  0.27038  0.02021  1.0000
  C   C5044     1.0  0.60263  0.28254  0.06333  1.0000
  C   C5045     1.0  0.63316  0.22150  0.07118  1.0000
  C   C5046     1.0  0.67041  0.22482  0.09460  1.0000
  C   C5047     1.0  0.68558  0.24750  0.00939  1.0000
  C   C5048     1.0  0.65885  0.27454  0.03705  1.0000
  C   C5049     1.0  0.60860  0.20994  0.09309  1.0000
  C   C5050     1.0  0.66032  0.22216  0.11746  1.0000
  C   C5051     1.0  0.58197  0.28242  0.16158  1.0000
  C   C5052     1.0  0.61167  0.25030  0.20259  1.0000
  C   C5053     1.0  0.66275  0.20997  0.14310  1.0000
  C   C5054     1.0  0.68577  0.23985  0.20058  1.0000
  C   C5055     1.0  0.59802  0.25113  0.11447  1.0000
  C   C5056     1.0  0.66543  0.24445  0.13436  1.0000
  C   C5057     1.0  0.61335  0.21535  0.21542  1.0000
  C   C5058     1.0  0.63117  0.22348  0.21163  1.0000
  C   C5059     1.0  0.61157  0.27205  0.25847  1.0000
  C   C5060     1.0  0.61670  0.27540  0.27689  1.0000
  C   C5061     1.0  0.64959  0.22468  0.24753  1.0000
  C   C5062     1.0  0.66402  0.23143  0.25379  1.0000
  C   C5063     1.0  0.65584  0.24372  0.23236  1.0000
  C   C5064     1.0  0.67744  0.25846  0.19003  1.0000
  C   C5065     1.0  0.63557  0.20148  0.32757  1.0000
  C   C5066     1.0  0.65141  0.22585  0.31599  1.0000
  C   C5067     1.0  0.57881  0.27167  0.34375  1.0000
  C   C5068     1.0  0.64778  0.28691  0.34936  1.0000
  C   C5069     1.0  0.62815  0.22429  0.33819  1.0000
  C   C5070     1.0  0.66550  0.23356  0.43825  1.0000
  C   C5071     1.0  0.68309  0.26254  0.31891  1.0000
  C   C5072     1.0  0.65606  0.24565  0.32876  1.0000
  C   C5073     1.0  0.59342  0.22419  0.39735  1.0000
  C   C5074     1.0  0.60946  0.23908  0.43485  1.0000
  C   C5075     1.0  0.63231  0.25372  0.45772  1.0000
  C   C5076     1.0  0.62612  0.28899  0.46009  1.0000
  C   C5077     1.0  0.63112  0.23704  0.45190  1.0000
  C   C5078     1.0  0.68568  0.23669  0.45107  1.0000
  C   C5079     1.0  0.65032  0.25049  0.40844  1.0000
  C   C5080     1.0  0.66800  0.29590  0.43805  1.0000
  C   C5081     1.0  0.59787  0.22315  0.51633  1.0000
  C   C5082     1.0  0.63573  0.22951  0.49140  1.0000
  C   C5083     1.0  0.60917  0.26185  0.55196  1.0000
  C   C5084     1.0  0.61211  0.27757  0.60265  1.0000
  C   C5085     1.0  0.65445  0.23428  0.55757  1.0000
  C   C5086     1.0  0.65677  0.24593  0.59473  1.0000
  C   C5087     1.0  0.66738  0.23904  0.50582  1.0000
  C   C5088     1.0  0.68291  0.28733  0.50916  1.0000
  C   C5089     1.0  0.58150  0.22080  0.59918  1.0000
  C   C5090     1.0  0.66056  0.22747  0.62916  1.0000
  C   C5091     1.0  0.58072  0.24633  0.62563  1.0000
  C   C5092     1.0  0.58597  0.25647  0.67149  1.0000
  C   C5093     1.0  0.64268  0.21025  0.62330  1.0000
  C   C5094     1.0  0.68000  0.22425  0.66342  1.0000
  C   C5095     1.0  0.65044  0.24270  0.63264  1.0000
  C   C5096     1.0  0.69308  0.24339  0.65312  1.0000
  C   C5097     1.0  0.58789  0.20261  0.70872  1.0000
  C   C5098     1.0  0.63667  0.22802  0.71831  1.0000
  C   C5099     1.0  0.57984  0.25177  0.76544  1.0000
  C   C5100     1.0  0.58771  0.24182  0.76552  1.0000
  C   C5101     1.0  0.63418  0.23378  0.78402  1.0000
  C   C5102     1.0  0.68097  0.22654  0.74464  1.0000
  C   C5103     1.0  0.61466  0.27265  0.65016  1.0000
  C   C5104     1.0  0.70737  0.27916  0.69824  1.0000
  C   C5105     1.0  0.62131  0.21668  0.82471  1.0000
  C   C5106     1.0  0.60674  0.24907  0.77750  1.0000
  C   C5107     1.0  0.62547  0.26474  0.87904  1.0000
  C   C5108     1.0  0.63830  0.26668  0.87751  1.0000
  C   C5109     1.0  0.66125  0.21227  0.86149  1.0000
  C   C5110     1.0  0.64862  0.25158  0.90874  1.0000
  C   C5111     1.0  0.64825  0.24447  0.79474  1.0000
  C   C5112     1.0  0.67935  0.25789  0.84048  1.0000
  C   C5113     1.0  0.58786  0.20586  0.92165  1.0000
  C   C5114     1.0  0.58907  0.22062  0.94487  1.0000
  C   C5115     1.0  0.60353  0.25276  0.95408  1.0000
  C   C5116     1.0  0.64916  0.25328  0.95112  1.0000
  C   C5117     1.0  0.65947  0.22631  0.94823  1.0000
  C   C5118     1.0  0.66353  0.23698  0.97652  1.0000
  C   C5119     1.0  0.64742  0.25297  0.92051  1.0000
  C   C5120     1.0  0.67653  0.27296  0.96517  1.0000
  C   C5121     1.0  0.57296  0.28207  0.02129  1.0000
  C   C5122     1.0  0.64606  0.28323  0.96976  1.0000
  C   C5123     1.0  0.60516  0.29519  0.07554  1.0000
  C   C5124     1.0  0.65681  0.33652  0.06674  1.0000
  C   C5125     1.0  0.69698  0.29706  0.07492  1.0000
  C   C5126     1.0  0.63083  0.26667  0.08277  1.0000
  C   C5127     1.0  0.64801  0.31232  0.01622  1.0000
  C   C5128     1.0  0.68942  0.32111  0.00127  1.0000
  C   C5129     1.0  0.60961  0.27772  0.09854  1.0000
  C   C5130     1.0  0.64508  0.30234  0.14151  1.0000
  C   C5131     1.0  0.60433  0.31880  0.16781  1.0000
  C   C5132     1.0  0.63101  0.33760  0.18372  1.0000
  C   C5133     1.0  0.61675  0.25945  0.19277  1.0000
  C   C5134     1.0  0.68866  0.31078  0.18048  1.0000
  C   C5135     1.0  0.66260  0.31625  0.10551  1.0000
  C   C5136     1.0  0.70114  0.31986  0.15414  1.0000
  C   C5137     1.0  0.59364  0.28214  0.18164  1.0000
  C   C5138     1.0  0.61656  0.30617  0.23287  1.0000
  C   C5139     1.0  0.56588  0.32845  0.24235  1.0000
  C   C5140     1.0  0.59048  0.29536  0.24962  1.0000
  C   C5141     1.0  0.67430  0.27228  0.23664  1.0000
  C   C5142     1.0  0.68132  0.29562  0.30754  1.0000
  C   C5143     1.0  0.68127  0.29121  0.23687  1.0000
  C   C5144     1.0  0.67843  0.31820  0.22445  1.0000
  C   C5145     1.0  0.61650  0.28361  0.27859  1.0000
  C   C5146     1.0  0.62595  0.29461  0.32643  1.0000
  C   C5147     1.0  0.57241  0.31079  0.29880  1.0000
  C   C5148     1.0  0.64327  0.35852  0.39615  1.0000
  C   C5149     1.0  0.65486  0.28352  0.34863  1.0000
  C   C5150     1.0  0.62473  0.30738  0.40228  1.0000
  C   C5151     1.0  0.63911  0.32778  0.30962  1.0000
  C   C5152     1.0  0.69271  0.33727  0.34088  1.0000
  C   C5153     1.0  0.60926  0.27151  0.39777  1.0000
  C   C5154     1.0  0.64758  0.30212  0.43482  1.0000
  C   C5155     1.0  0.57798  0.32028  0.43915  1.0000
  C   C5156     1.0  0.63560  0.33310  0.44255  1.0000
  C   C5157     1.0  0.62400  0.27186  0.42504  1.0000
  C   C5158     1.0  0.69529  0.28466  0.49493  1.0000
  C   C5159     1.0  0.65624  0.29957  0.40921  1.0000
  C   C5160     1.0  0.64585  0.32972  0.43988  1.0000
  C   C5161     1.0  0.59534  0.28863  0.47669  1.0000
  C   C5162     1.0  0.64792  0.28624  0.48932  1.0000
  C   C5163     1.0  0.57951  0.30420  0.55575  1.0000
  C   C5164     1.0  0.60886  0.30859  0.58213  1.0000
  C   C5165     1.0  0.64606  0.28331  0.53374  1.0000
  C   C5166     1.0  0.64689  0.29704  0.55588  1.0000
  C   C5167     1.0  0.66462  0.31912  0.46391  1.0000
  C   C5168     1.0  0.69185  0.31753  0.54785  1.0000
  C   C5169     1.0  0.59707  0.25423  0.58058  1.0000
  C   C5170     1.0  0.61921  0.29451  0.63812  1.0000
  C   C5171     1.0  0.62808  0.30826  0.65337  1.0000
  C   C5172     1.0  0.62016  0.30231  0.65676  1.0000
  C   C5173     1.0  0.65848  0.28690  0.65640  1.0000
  C   C5174     1.0  0.69287  0.27979  0.67465  1.0000
  C   C5175     1.0  0.64171  0.29769  0.60962  1.0000
  C   C5176     1.0  0.63946  0.33704  0.61337  1.0000
  C   C5177     1.0  0.62049  0.28074  0.67713  1.0000
  C   C5178     1.0  0.63741  0.28361  0.71737  1.0000
  C   C5179     1.0  0.62131  0.31829  0.74612  1.0000
  C   C5180     1.0  0.64799  0.33546  0.79454  1.0000
  C   C5181     1.0  0.62365  0.29763  0.75122  1.0000
  C   C5182     1.0  0.66976  0.28811  0.73317  1.0000
  C   C5183     1.0  0.60578  0.33000  0.66967  1.0000
  C   C5184     1.0  0.63094  0.32299  0.74347  1.0000
  C   C5185     1.0  0.60227  0.30492  0.79168  1.0000
  C   C5186     1.0  0.60757  0.32763  0.84318  1.0000
  C   C5187     1.0  0.58778  0.28562  0.81795  1.0000
  C   C5188     1.0  0.62942  0.34215  0.88276  1.0000
  C   C5189     1.0  0.65816  0.24970  0.84244  1.0000
  C   C5190     1.0  0.68385  0.28099  0.88251  1.0000
  C   C5191     1.0  0.66866  0.33650  0.82639  1.0000
  C   C5192     1.0  0.68693  0.30801  0.78260  1.0000
  C   C5193     1.0  0.59802  0.26957  0.89856  1.0000
  C   C5194     1.0  0.63807  0.31574  0.93814  1.0000
  C   C5195     1.0  0.62397  0.32882  0.92158  1.0000
  C   C5196     1.0  0.59715  0.32393  0.94688  1.0000
  C   C5197     1.0  0.67229  0.30576  0.95743  1.0000
  C   C5198     1.0  0.67308  0.28110  0.96907  1.0000
  C   C5199     1.0  0.63202  0.30418  0.87420  1.0000
  C   C5200     1.0  0.69024  0.33708  0.92441  1.0000
  C   C5201     1.0  0.61654  0.36445  0.01891  1.0000
  C   C5202     1.0  0.64039  0.35742  0.06926  1.0000
  C   C5203     1.0  0.58401  0.37051  0.04024  1.0000
  C   C5204     1.0  0.62354  0.41031  0.08559  1.0000
  C   C5205     1.0  0.61703  0.34198  0.08585  1.0000
  C   C5206     1.0  0.66335  0.36673  0.06972  1.0000
  C   C5207     1.0  0.66019  0.36753  0.96517  1.0000
  C   C5208     1.0  0.72229  0.36354  0.00874  1.0000
  C   C5209     1.0  0.62929  0.34028  0.09796  1.0000
  C   C5210     1.0  0.64169  0.35481  0.13322  1.0000
  C   C5211     1.0  0.54708  0.38837  0.14766  1.0000
  C   C5212     1.0  0.66444  0.41567  0.14203  1.0000
  C   C5213     1.0  0.63948  0.34849  0.18660  1.0000
  C   C5214     1.0  0.70112  0.34684  0.13771  1.0000
  C   C5215     1.0  0.65522  0.37541  0.08247  1.0000
  C   C5216     1.0  0.68220  0.36758  0.12453  1.0000
  C   C5217     1.0  0.62810  0.32838  0.20407  1.0000
  C   C5218     1.0  0.60070  0.33929  0.20993  1.0000
  C   C5219     1.0  0.62875  0.38386  0.24203  1.0000
  C   C5220     1.0  0.65951  0.40341  0.23712  1.0000
  C   C5221     1.0  0.65536  0.33589  0.26607  1.0000
  C   C5222     1.0  0.68924  0.34368  0.27360  1.0000
  C   C5223     1.0  0.66183  0.37979  0.20880  1.0000
  C   C5224     1.0  0.67503  0.38982  0.20927  1.0000
  C   C5225     1.0  0.62856  0.31520  0.31463  1.0000
  C   C5226     1.0  0.62975  0.36597  0.33706  1.0000
  C   C5227     1.0  0.58228  0.35271  0.35428  1.0000
  C   C5228     1.0  0.64076  0.38914  0.33600  1.0000
  C   C5229     1.0  0.67096  0.33797  0.31696  1.0000
  C   C5230     1.0  0.67417  0.37345  0.35559  1.0000
  C   C5231     1.0  0.66587  0.37647  0.28341  1.0000
  C   C5232     1.0  0.69040  0.39380  0.31855  1.0000
  C   C5233     1.0  0.60655  0.34498  0.36994  1.0000
  C   C5234     1.0  0.61788  0.34723  0.42806  1.0000
  C   C5235     1.0  0.62871  0.34447  0.43895  1.0000
  C   C5236     1.0  0.61734  0.39647  0.49525  1.0000
  C   C5237     1.0  0.64132  0.35298  0.44747  1.0000
  C   C5238     1.0  0.70025  0.36705  0.46565  1.0000
  C   C5239     1.0  0.63935  0.37944  0.41501  1.0000
  C   C5240     1.0  0.66784  0.39390  0.43324  1.0000
  C   C5241     1.0  0.60373  0.33139  0.50132  1.0000
  C   C5242     1.0  0.62190  0.36679  0.52874  1.0000
  C   C5243     1.0  0.62613  0.39111  0.54884  1.0000
  C   C5244     1.0  0.61452  0.38181  0.58637  1.0000
  C   C5245     1.0  0.65993  0.31061  0.53831  1.0000
  C   C5246     1.0  0.67494  0.34520  0.52826  1.0000
  C   C5247     1.0  0.63465  0.37490  0.49298  1.0000
  C   C5248     1.0  0.65179  0.38864  0.54368  1.0000
  C   C5249     1.0  0.57840  0.32776  0.59680  1.0000
  C   C5250     1.0  0.66386  0.35711  0.57196  1.0000
  C   C5251     1.0  0.61922  0.37269  0.60730  1.0000
  C   C5252     1.0  0.64156  0.36887  0.67661  1.0000
  C   C5253     1.0  0.63531  0.34710  0.66127  1.0000
  C   C5254     1.0  0.63427  0.35333  0.66413  1.0000
  C   C5255     1.0  0.62478  0.39066  0.60328  1.0000
  C   C5256     1.0  0.66431  0.39908  0.64053  1.0000
  C   C5257     1.0  0.59985  0.33350  0.72378  1.0000
  C   C5258     1.0  0.61187  0.36407  0.72728  1.0000
  C   C5259     1.0  0.57563  0.36410  0.75446  1.0000
  C   C5260     1.0  0.63079  0.38795  0.73874  1.0000
  C   C5261     1.0  0.66758  0.35026  0.75398  1.0000
  C   C5262     1.0  0.68437  0.35164  0.78296  1.0000
  C   C5263     1.0  0.63577  0.38388  0.67932  1.0000
  C   C5264     1.0  0.64780  0.39426  0.75924  1.0000
  C   C5265     1.0  0.62155  0.34330  0.77304  1.0000
  C   C5266     1.0  0.59731  0.36632  0.83747  1.0000
  C   C5267     1.0  0.59549  0.36592  0.85648  1.0000
  C   C5268     1.0  0.63316  0.39171  0.87975  1.0000
  C   C5269     1.0  0.62812  0.34426  0.85148  1.0000
  C   C5270     1.0  0.67313  0.35569  0.87975  1.0000
  C   C5271     1.0  0.65591  0.37802  0.82514  1.0000
  C   C5272     1.0  0.70182  0.39266  0.78567  1.0000
  C   C5273     1.0  0.56770  0.35657  0.91124  1.0000
  C   C5274     1.0  0.61681  0.36540  0.94281  1.0000
  C   C5275     1.0  0.59372  0.34819  0.98402  1.0000
  C   C5276     1.0  0.63146  0.36794  0.93796  1.0000
  C   C5277     1.0  0.67864  0.34386  0.94523  1.0000
  C   C5278     1.0  0.68424  0.34573  0.92616  1.0000
  C   C5279     1.0  0.62811  0.35517  0.88711  1.0000
  C   C5280     1.0  0.64466  0.39666  0.92912  1.0000
  C   C5281     1.0  0.54575  0.40639  0.95798  1.0000
  C   C5282     1.0  0.64029  0.41511  0.98288  1.0000
  C   C5283     1.0  0.59527  0.42966  0.07283  1.0000
  C   C5284     1.0  0.63968  0.43932  0.06515  1.0000
  C   C5285     1.0  0.65523  0.42425  0.04780  1.0000
  C   C5286     1.0  0.68139  0.43232  0.04201  1.0000
  C   C5287     1.0  0.66479  0.40671  0.99711  1.0000
  C   C5288     1.0  0.70280  0.45722  0.02091  1.0000
  C   C5289     1.0  0.61078  0.40127  0.11254  1.0000
  C   C5290     1.0  0.59558  0.39784  0.11298  1.0000
  C   C5291     1.0  0.60468  0.44843  0.14138  1.0000
  C   C5292     1.0  0.64266  0.46469  0.20483  1.0000
  C   C5293     1.0  0.67317  0.41180  0.14613  1.0000
  C   C5294     1.0  0.65120  0.42543  0.16198  1.0000
  C   C5295     1.0  0.65753  0.43748  0.07125  1.0000
  C   C5296     1.0  0.66106  0.46417  0.10150  1.0000
  C   C5297     1.0  0.62210  0.41084  0.21168  1.0000
  C   C5298     1.0  0.58962  0.42946  0.18828  1.0000
  C   C5299     1.0  0.58495  0.43756  0.22550  1.0000
  C   C5300     1.0  0.63703  0.46397  0.24909  1.0000
  C   C5301     1.0  0.67035  0.40210  0.26175  1.0000
  C   C5302     1.0  0.65778  0.45340  0.27907  1.0000
  C   C5303     1.0  0.66921  0.44782  0.19562  1.0000
  C   C5304     1.0  0.66093  0.44125  0.24930  1.0000
  C   C5305     1.0  0.57378  0.39691  0.30331  1.0000
  C   C5306     1.0  0.64246  0.39655  0.31891  1.0000
  C   C5307     1.0  0.62555  0.44896  0.37509  1.0000
  C   C5308     1.0  0.61444  0.43861  0.38212  1.0000
  C   C5309     1.0  0.64605  0.40406  0.32439  1.0000
  C   C5310     1.0  0.67335  0.42732  0.38604  1.0000
  C   C5311     1.0  0.64550  0.43573  0.33811  1.0000
  C   C5312     1.0  0.69516  0.44567  0.33621  1.0000
  C   C5313     1.0  0.53687  0.41664  0.42533  1.0000
  C   C5314     1.0  0.67051  0.40582  0.40435  1.0000
  C   C5315     1.0  0.63579  0.42401  0.43261  1.0000
  C   C5316     1.0  0.60471  0.44715  0.47613  1.0000
  C   C5317     1.0  0.64385  0.40975  0.43252  1.0000
  C   C5318     1.0  0.64685  0.42375  0.46325  1.0000
  C   C5319     1.0  0.61959  0.43402  0.38534  1.0000
  C   C5320     1.0  0.69137  0.44934  0.40192  1.0000
  C   C5321     1.0  0.59470  0.39665  0.46653  1.0000
  C   C5322     1.0  0.62705  0.43226  0.52824  1.0000
  C   C5323     1.0  0.59545  0.46371  0.55845  1.0000
  C   C5324     1.0  0.64018  0.42854  0.56444  1.0000
  C   C5325     1.0  0.63404  0.37757  0.53686  1.0000
  C   C5326     1.0  0.68129  0.43746  0.58227  1.0000
  C   C5327     1.0  0.65247  0.44589  0.50514  1.0000
  C   C5328     1.0  0.67172  0.47682  0.50578  1.0000
  C   C5329     1.0  0.59437  0.39769  0.62422  1.0000
  C   C5330     1.0  0.66194  0.44255  0.66591  1.0000
  C   C5331     1.0  0.57257  0.43636  0.64092  1.0000
  C   C5332     1.0  0.60285  0.45696  0.69291  1.0000
  C   C5333     1.0  0.63312  0.40037  0.61976  1.0000
  C   C5334     1.0  0.66341  0.41635  0.66907  1.0000
  C   C5335     1.0  0.62398  0.43106  0.57779  1.0000
  C   C5336     1.0  0.64518  0.44634  0.68719  1.0000
  C   C5337     1.0  0.58226  0.38265  0.69292  1.0000
  C   C5338     1.0  0.61646  0.40474  0.72392  1.0000
  C   C5339     1.0  0.58371  0.41388  0.75911  1.0000
  C   C5340     1.0  0.62101  0.45242  0.76902  1.0000
  C   C5341     1.0  0.66509  0.37219  0.77485  1.0000
  C   C5342     1.0  0.68304  0.42106  0.74071  1.0000
  C   C5343     1.0  0.63221  0.43370  0.68001  1.0000
  C   C5344     1.0  0.68665  0.47390  0.71501  1.0000
  C   C5345     1.0  0.64219  0.40990  0.78264  1.0000
  C   C5346     1.0  0.61176  0.41866  0.85215  1.0000
  C   C5347     1.0  0.61887  0.45431  0.82623  1.0000
  C   C5348     1.0  0.64765  0.45980  0.89082  1.0000
  C   C5349     1.0  0.67524  0.39390  0.86217  1.0000
  C   C5350     1.0  0.64775  0.41300  0.87517  1.0000
  C   C5351     1.0  0.63557  0.44908  0.80085  1.0000
  C   C5352     1.0  0.65180  0.44979  0.82969  1.0000
  C   C5353     1.0  0.62275  0.39396  0.90293  1.0000
  C   C5354     1.0  0.62462  0.42907  0.91197  1.0000
  C   C5355     1.0  0.59489  0.43779  0.91925  1.0000
  C   C5356     1.0  0.63131  0.44985  0.98235  1.0000
  C   C5357     1.0  0.65451  0.40475  0.95592  1.0000
  C   C5358     1.0  0.66975  0.41778  0.97056  1.0000
  C   C5359     1.0  0.67605  0.42055  0.89716  1.0000
  C   C5360     1.0  0.65753  0.43571  0.90504  1.0000
  C   C5361     1.0  0.58354  0.47389  0.00425  1.0000
  C   C5362     1.0  0.62320  0.49958  0.03140  1.0000
  C   C5363     1.0  0.62278  0.47679  0.07111  1.0000
  C   C5364     1.0  0.62664  0.49759  0.06307  1.0000
  C   C5365     1.0  0.66477  0.47957  0.04264  1.0000
  C   C5366     1.0  0.67150  0.48440  0.06082  1.0000
  C   C5367     1.0  0.63409  0.49140  0.03957  1.0000
  C   C5368     1.0  0.70635  0.53245  0.01633  1.0000
  C   C5369     1.0  0.61316  0.45856  0.08376  1.0000
  C   C5370     1.0  0.63155  0.46999  0.18154  1.0000
  C   C5371     1.0  0.57114  0.48200  0.16539  1.0000
  C   C5372     1.0  0.60756  0.51786  0.15256  1.0000
  C   C5373     1.0  0.66393  0.46947  0.12040  1.0000
  C   C5374     1.0  0.68514  0.49413  0.11782  1.0000
  C   C5375     1.0  0.66093  0.48059  0.09648  1.0000
  C   C5376     1.0  0.65969  0.49319  0.10680  1.0000
  C   C5377     1.0  0.58275  0.46329  0.18752  1.0000
  C   C5378     1.0  0.62795  0.49725  0.19213  1.0000
  C   C5379     1.0  0.60870  0.50265  0.21537  1.0000
  C   C5380     1.0  0.60193  0.48433  0.28352  1.0000
  C   C5381     1.0  0.65552  0.46924  0.27412  1.0000
  C   C5382     1.0  0.68322  0.50321  0.31390  1.0000
  C   C5383     1.0  0.65435  0.49645  0.23659  1.0000
  C   C5384     1.0  0.65626  0.51506  0.22704  1.0000
  C   C5385     1.0  0.60577  0.47843  0.26804  1.0000
  C   C5386     1.0  0.62920  0.48893  0.34754  1.0000
  C   C5387     1.0  0.57813  0.47464  0.32338  1.0000
  C   C5388     1.0  0.63891  0.50495  0.34873  1.0000
  C   C5389     1.0  0.63391  0.46521  0.32800  1.0000
  C   C5390     1.0  0.65546  0.48110  0.35800  1.0000
  C   C5391     1.0  0.65094  0.48659  0.29913  1.0000
  C   C5392     1.0  0.68140  0.51478  0.31807  1.0000
  C   C5393     1.0  0.59804  0.46235  0.39895  1.0000
  C   C5394     1.0  0.63986  0.48049  0.41665  1.0000
  C   C5395     1.0  0.61690  0.49602  0.46486  1.0000
  C   C5396     1.0  0.62844  0.49745  0.47515  1.0000
  C   C5397     1.0  0.68970  0.48124  0.45879  1.0000
  C   C5398     1.0  0.65751  0.47758  0.47313  1.0000
  C   C5399     1.0  0.65068  0.50545  0.38467  1.0000
  C   C5400     1.0  0.69017  0.50691  0.39683  1.0000
  C   C5401     1.0  0.58644  0.44975  0.48656  1.0000
  C   C5402     1.0  0.57943  0.45544  0.52185  1.0000
  C   C5403     1.0  0.59600  0.48397  0.55742  1.0000
  C   C5404     1.0  0.63969  0.51802  0.56906  1.0000
  C   C5405     1.0  0.63763  0.45278  0.53831  1.0000
  C   C5406     1.0  0.70185  0.48082  0.56398  1.0000
  C   C5407     1.0  0.64431  0.48981  0.50073  1.0000
  C   C5408     1.0  0.65633  0.48626  0.50293  1.0000
  C   C5409     1.0  0.59106  0.47622  0.62271  1.0000
  C   C5410     1.0  0.64321  0.45756  0.64573  1.0000
  C   C5411     1.0  0.63134  0.51311  0.68111  1.0000
  C   C5412     1.0  0.64712  0.50293  0.69714  1.0000
  C   C5413     1.0  0.67737  0.47785  0.65559  1.0000
  C   C5414     1.0  0.71408  0.49710  0.68102  1.0000
  C   C5415     1.0  0.66175  0.49647  0.56852  1.0000
  C   C5416     1.0  0.68143  0.50323  0.59070  1.0000
  C   C5417     1.0  0.59636  0.47055  0.69715  1.0000
  C   C5418     1.0  0.61914  0.48836  0.73109  1.0000
  C   C5419     1.0  0.55488  0.49278  0.76338  1.0000
  C   C5420     1.0  0.62822  0.52107  0.78957  1.0000
  C   C5421     1.0  0.65193  0.48014  0.77248  1.0000
  C   C5422     1.0  0.67537  0.48970  0.79258  1.0000
  C   C5423     1.0  0.65042  0.49910  0.66217  1.0000
  C   C5424     1.0  0.72839  0.48460  0.73586  1.0000
  C   C5425     1.0  0.61346  0.47247  0.81039  1.0000
  C   C5426     1.0  0.63345  0.47465  0.86190  1.0000
  C   C5427     1.0  0.64319  0.50843  0.85290  1.0000
  C   C5428     1.0  0.62229  0.49230  0.88247  1.0000
  C   C5429     1.0  0.67460  0.45220  0.82867  1.0000
  C   C5430     1.0  0.63467  0.48275  0.85264  1.0000
  C   C5431     1.0  0.67941  0.47737  0.76950  1.0000
  C   C5432     1.0  0.68822  0.51224  0.76880  1.0000
  C   C5433     1.0  0.62697  0.48181  0.88371  1.0000
  C   C5434     1.0  0.62444  0.48588  0.93341  1.0000
  C   C5435     1.0  0.59647  0.48158  0.93831  1.0000
  C   C5436     1.0  0.61600  0.51729  0.97001  1.0000
  C   C5437     1.0  0.66564  0.47353  0.95645  1.0000
  C   C5438     1.0  0.66224  0.45530  0.97888  1.0000
  C   C5439     1.0  0.67722  0.48262  0.88789  1.0000
  C   C5440     1.0  0.63851  0.50299  0.90071  1.0000
  C   C5441     1.0  0.61011  0.49257  0.99655  1.0000
  C   C5442     1.0  0.62963  0.55486  0.01754  1.0000
  C   C5443     1.0  0.64854  0.54836  0.00902  1.0000
  C   C5444     1.0  0.65561  0.58026  0.04697  1.0000
  C   C5445     1.0  0.65021  0.53063  0.01316  1.0000
  C   C5446     1.0  0.67067  0.54882  0.07763  1.0000
  C   C5447     1.0  0.66837  0.57538  0.98628  1.0000
  C   C5448     1.0  0.68765  0.57712  0.01980  1.0000
  C   C5449     1.0  0.59751  0.53048  0.13696  1.0000
  C   C5450     1.0  0.59942  0.54094  0.08660  1.0000
  C   C5451     1.0  0.59687  0.56843  0.17963  1.0000
  C   C5452     1.0  0.61435  0.58692  0.22024  1.0000
  C   C5453     1.0  0.71088  0.52296  0.13154  1.0000
  C   C5454     1.0  0.66341  0.52736  0.19266  1.0000
  C   C5455     1.0  0.61006  0.54908  0.09441  1.0000
  C   C5456     1.0  0.67853  0.58856  0.14157  1.0000
  C   C5457     1.0  0.62279  0.52082  0.18228  1.0000
  C   C5458     1.0  0.60927  0.54923  0.20045  1.0000
  C   C5459     1.0  0.60848  0.56893  0.26785  1.0000
  C   C5460     1.0  0.62908  0.58277  0.30700  1.0000
  C   C5461     1.0  0.64224  0.53114  0.27350  1.0000
  C   C5462     1.0  0.67575  0.55442  0.25529  1.0000
  C   C5463     1.0  0.63344  0.53719  0.16216  1.0000
  C   C5464     1.0  0.68037  0.52876  0.23445  1.0000
  C   C5465     1.0  0.63574  0.52775  0.29041  1.0000
  C   C5466     1.0  0.63881  0.53205  0.29284  1.0000
  C   C5467     1.0  0.62624  0.59079  0.36086  1.0000
  C   C5468     1.0  0.64926  0.57805  0.38052  1.0000
  C   C5469     1.0  0.62766  0.51157  0.37706  1.0000
  C   C5470     1.0  0.63730  0.54431  0.34806  1.0000
  C   C5471     1.0  0.63648  0.56203  0.29322  1.0000
  C   C5472     1.0  0.62758  0.57098  0.30531  1.0000
  C   C5473     1.0  0.59761  0.54868  0.43207  1.0000
  C   C5474     1.0  0.57733  0.53515  0.43189  1.0000
  C   C5475     1.0  0.61547  0.54587  0.47044  1.0000
  C   C5476     1.0  0.60178  0.56053  0.45808  1.0000
  C   C5477     1.0  0.68860  0.52230  0.46405  1.0000
  C   C5478     1.0  0.69296  0.51097  0.45780  1.0000
  C   C5479     1.0  0.62631  0.56224  0.41396  1.0000
  C   C5480     1.0  0.66657  0.56873  0.46335  1.0000
  C   C5481     1.0  0.55719  0.51411  0.49634  1.0000
  C   C5482     1.0  0.63721  0.53806  0.54343  1.0000
  C   C5483     1.0  0.60851  0.55840  0.55696  1.0000
  C   C5484     1.0  0.62352  0.57720  0.56016  1.0000
  C   C5485     1.0  0.65378  0.51000  0.54001  1.0000
  C   C5486     1.0  0.67196  0.50737  0.57145  1.0000
  C   C5487     1.0  0.63971  0.54508  0.50353  1.0000
  C   C5488     1.0  0.71349  0.57768  0.49344  1.0000
  C   C5489     1.0  0.60782  0.52005  0.57691  1.0000
  C   C5490     1.0  0.60903  0.53453  0.61543  1.0000
  C   C5491     1.0  0.59800  0.55213  0.62769  1.0000
  C   C5492     1.0  0.61606  0.57212  0.67724  1.0000
  C   C5493     1.0  0.66923  0.53054  0.65970  1.0000
  C   C5494     1.0  0.67075  0.54393  0.66861  1.0000
  C   C5495     1.0  0.64660  0.54465  0.59400  1.0000
  C   C5496     1.0  0.66919  0.56136  0.60333  1.0000
  C   C5497     1.0  0.61607  0.50636  0.71048  1.0000
  C   C5498     1.0  0.61828  0.53849  0.69568  1.0000
  C   C5499     1.0  0.61170  0.54375  0.74197  1.0000
  C   C5500     1.0  0.59906  0.56933  0.78595  1.0000
  C   C5501     1.0  0.62309  0.51838  0.77530  1.0000
  C   C5502     1.0  0.69094  0.55002  0.79487  1.0000
  C   C5503     1.0  0.64037  0.57347  0.71310  1.0000
  C   C5504     1.0  0.67500  0.56495  0.70867  1.0000
  C   C5505     1.0  0.61741  0.50438  0.79129  1.0000
  C   C5506     1.0  0.61953  0.54213  0.81734  1.0000
  C   C5507     1.0  0.59824  0.56708  0.85206  1.0000
  C   C5508     1.0  0.64404  0.56373  0.87528  1.0000
  C   C5509     1.0  0.65243  0.52241  0.88158  1.0000
  C   C5510     1.0  0.68772  0.53562  0.85969  1.0000
  C   C5511     1.0  0.63752  0.58171  0.79500  1.0000
  C   C5512     1.0  0.67213  0.56938  0.85113  1.0000
  C   C5513     1.0  0.62120  0.51878  0.90679  1.0000
  C   C5514     1.0  0.63332  0.53223  0.90257  1.0000
  C   C5515     1.0  0.56707  0.56922  0.94947  1.0000
  C   C5516     1.0  0.62440  0.57446  0.97655  1.0000
  C   C5517     1.0  0.64371  0.50725  0.96209  1.0000
  C   C5518     1.0  0.67385  0.54629  0.92743  1.0000
  C   C5519     1.0  0.64246  0.55391  0.90847  1.0000
  C   C5520     1.0  0.65272  0.55945  0.93118  1.0000
  C   C5521     1.0  0.56795  0.58703  0.99203  1.0000
  C   C5522     1.0  0.59158  0.60374  0.03067  1.0000
  C   C5523     1.0  0.59836  0.63200  0.05115  1.0000
  C   C5524     1.0  0.65444  0.63254  0.12047  1.0000
  C   C5525     1.0  0.61901  0.58898  0.04406  1.0000
  C   C5526     1.0  0.72648  0.60368  0.07050  1.0000
  C   C5527     1.0  0.61978  0.61355  0.99466  1.0000
  C   C5528     1.0  0.68368  0.60651  0.04793  1.0000
  C   C5529     1.0  0.63874  0.59883  0.09650  1.0000
  C   C5530     1.0  0.62415  0.59060  0.09210  1.0000
  C   C5531     1.0  0.53721  0.59551  0.13813  1.0000
  C   C5532     1.0  0.62600  0.62554  0.19474  1.0000
  C   C5533     1.0  0.61706  0.59659  0.16220  1.0000
  C   C5534     1.0  0.66626  0.58790  0.16486  1.0000
  C   C5535     1.0  0.63486  0.62802  0.12941  1.0000
  C   C5536     1.0  0.68966  0.64025  0.16196  1.0000
  C   C5537     1.0  0.62540  0.58947  0.22678  1.0000
  C   C5538     1.0  0.62783  0.60440  0.19244  1.0000
  C   C5539     1.0  0.60860  0.60265  0.21541  1.0000
  C   C5540     1.0  0.65745  0.62976  0.27758  1.0000
  C   C5541     1.0  0.63446  0.60288  0.24478  1.0000
  C   C5542     1.0  0.65662  0.60544  0.25992  1.0000
  C   C5543     1.0  0.64880  0.60934  0.18255  1.0000
  C   C5544     1.0  0.68934  0.64475  0.20277  1.0000
  C   C5545     1.0  0.60115  0.55823  0.31658  1.0000
  C   C5546     1.0  0.63139  0.58691  0.31660  1.0000
  C   C5547     1.0  0.57841  0.60867  0.33686  1.0000
  C   C5548     1.0  0.61518  0.61554  0.40630  1.0000
  C   C5549     1.0  0.61447  0.58012  0.34648  1.0000
  C   C5550     1.0  0.69201  0.62956  0.39521  1.0000
  C   C5551     1.0  0.62670  0.60289  0.32124  1.0000
  C   C5552     1.0  0.71795  0.62451  0.37805  1.0000
  C   C5553     1.0  0.59759  0.57306  0.41260  1.0000
  C   C5554     1.0  0.62309  0.59847  0.41821  1.0000
  C   C5555     1.0  0.59821  0.61234  0.44422  1.0000
  C   C5556     1.0  0.62398  0.62629  0.46691  1.0000
  C   C5557     1.0  0.64246  0.59159  0.44471  1.0000
  C   C5558     1.0  0.69579  0.60042  0.49780  1.0000
  C   C5559     1.0  0.64658  0.63567  0.38689  1.0000
  C   C5560     1.0  0.68295  0.63374  0.39986  1.0000
  C   C5561     1.0  0.60835  0.57580  0.52220  1.0000
  C   C5562     1.0  0.64151  0.63477  0.47977  1.0000
  C   C5563     1.0  0.57255  0.60699  0.50612  1.0000
  C   C5564     1.0  0.64230  0.64081  0.58254  1.0000
  C   C5565     1.0  0.65189  0.60149  0.56726  1.0000
  C   C5566     1.0  0.67594  0.61058  0.59200  1.0000
  C   C5567     1.0  0.58402  0.62303  0.50687  1.0000
  C   C5568     1.0  0.67281  0.03524  0.54113  1.0000
  C   C5569     1.0  0.56428  0.60618  0.59853  1.0000
  C   C5570     1.0  0.67095  0.59616  0.64211  1.0000
  C   C5571     1.0  0.61976  0.61437  0.67108  1.0000
  C   C5572     1.0  0.60164  0.63945  0.68253  1.0000
  C   C5573     1.0  0.63120  0.60181  0.63015  1.0000
  C   C5574     1.0  0.66248  0.58661  0.67584  1.0000
  C   C5575     1.0  0.65296  0.61893  0.61524  1.0000
  C   C5576     1.0  0.70388  0.63022  0.65451  1.0000
  C   C5577     1.0  0.64960  0.58517  0.71567  1.0000
  C   C5578     1.0  0.62994  0.60366  0.74733  1.0000
  C   C5579     1.0  0.61029  0.63647  0.75065  1.0000
  C   C5580     1.0  0.62863  0.64175  0.78686  1.0000
  C   C5581     1.0  0.60953  0.58316  0.77512  1.0000
  C   C5582     1.0  0.68187  0.61079  0.75053  1.0000
  C   C5583     1.0  0.62309  0.63593  0.67455  1.0000
  C   C5584     1.0  0.68438  0.60641  0.74640  1.0000
  C   C5585     1.0  0.60704  0.59426  0.79136  1.0000
  C   C5586     1.0  0.59947  0.58350  0.79367  1.0000
  C   C5587     1.0  0.62938  0.60620  0.83076  1.0000
  C   C5588     1.0  0.64363  0.63926  0.88228  1.0000
  C   C5589     1.0  0.66349  0.60242  0.82815  1.0000
  C   C5590     1.0  0.64636  0.64072  0.89523  1.0000
  C   C5591     1.0  0.64489  0.64480  0.81822  1.0000
  C   C5592     1.0  0.65274  0.64136  0.83719  1.0000
  C   C5593     1.0  0.59191  0.57367  0.92192  1.0000
  C   C5594     1.0  0.63930  0.60404  0.90831  1.0000
  C   C5595     1.0  0.62303  0.60545  0.98159  1.0000
  C   C5596     1.0  0.58892  0.64408  0.97643  1.0000
  C   C5597     1.0  0.63087  0.57693  0.94535  1.0000
  C   C5598     1.0  0.63684  0.60427  0.96646  1.0000
  C   C5599     1.0  0.62536  0.62125  0.90497  1.0000
  C   C5600     1.0  0.65175  0.63961  0.95000  1.0000
  C   C5601     1.0  0.73802  0.64469  0.01934  1.0000
  C   C5602     1.0  0.68873  0.06802  0.99682  1.0000
  C   C5603     1.0  0.73532  0.05157  0.04967  1.0000
  C   C5604     1.0  0.74152  0.10862  0.07894  1.0000
  C   C5605     1.0  0.72272  0.04387  0.99604  1.0000
  C   C5606     1.0  0.80043  0.05947  0.07582  1.0000
  C   C5607     1.0  0.69898  0.07240  0.00677  1.0000
  C   C5608     1.0  0.75121  0.08351  0.03332  1.0000
  C   C5609     1.0  0.69818  0.64256  0.09928  1.0000
  C   C5610     1.0  0.71338  0.05352  0.11333  1.0000
  C   C5611     1.0  0.68795  0.04229  0.14805  1.0000
  C   C5612     1.0  0.76158  0.07865  0.17827  1.0000
  C   C5613     1.0  0.72991  0.64383  0.13854  1.0000
  C   C5614     1.0  0.77358  0.06108  0.13503  1.0000
  C   C5615     1.0  0.75915  0.07546  0.11314  1.0000
  C   C5616     1.0  0.81748  0.06091  0.11688  1.0000
  C   C5617     1.0  0.68751  0.03707  0.19365  1.0000
  C   C5618     1.0  0.74344  0.03895  0.22694  1.0000
  C   C5619     1.0  0.70049  0.06104  0.23783  1.0000
  C   C5620     1.0  0.72900  0.10145  0.26163  1.0000
  C   C5621     1.0  0.73143  0.63360  0.28603  1.0000
  C   C5622     1.0  0.79718  0.06150  0.25847  1.0000
  C   C5623     1.0  0.78070  0.07861  0.19080  1.0000
  C   C5624     1.0  0.74607  0.06727  0.20628  1.0000
  C   C5625     1.0  0.71588  0.04770  0.29158  1.0000
  C   C5626     1.0  0.70293  0.03939  0.32815  1.0000
  C   C5627     1.0  0.72455  0.07472  0.34914  1.0000
  C   C5628     1.0  0.76160  0.07162  0.35960  1.0000
  C   C5629     1.0  0.75555  0.63585  0.35138  1.0000
  C   C5630     1.0  0.76857  0.04593  0.38325  1.0000
  C   C5631     1.0  0.75256  0.10287  0.30377  1.0000
  C   C5632     1.0  0.81364  0.08529  0.33840  1.0000
  C   C5633     1.0  0.71534  0.04657  0.38265  1.0000
  C   C5634     1.0  0.72945  0.04791  0.41136  1.0000
  C   C5635     1.0  0.70361  0.05242  0.46684  1.0000
  C   C5636     1.0  0.71784  0.05849  0.47879  1.0000
  C   C5637     1.0  0.77977  0.04227  0.42991  1.0000
  C   C5638     1.0  0.78893  0.05285  0.46746  1.0000
  C   C5639     1.0  0.76399  0.09413  0.37858  1.0000
  C   C5640     1.0  0.73764  0.06369  0.41044  1.0000
  C   C5641     1.0  0.68472  0.03680  0.52089  1.0000
  C   C5642     1.0  0.75456  0.04121  0.53372  1.0000
  C   C5643     1.0  0.76461  0.08500  0.54927  1.0000
  C   C5644     1.0  0.70354  0.08510  0.58753  1.0000
  C   C5645     1.0  0.76719  0.04232  0.52887  1.0000
  C   C5646     1.0  0.76919  0.05818  0.57379  1.0000
  C   C5647     1.0  0.73140  0.06337  0.46918  1.0000
  C   C5648     1.0  0.77650  0.05741  0.52852  1.0000
  C   C5649     1.0  0.67613  0.04482  0.62254  1.0000
  C   C5650     1.0  0.77861  0.03623  0.64227  1.0000
  C   C5651     1.0  0.71596  0.06577  0.63930  1.0000
  C   C5652     1.0  0.73559  0.06714  0.69737  1.0000
  C   C5653     1.0  0.71531  0.63979  0.64594  1.0000
  C   C5654     1.0  0.72703  0.05858  0.70283  1.0000
  C   C5655     1.0  0.73900  0.05643  0.59633  1.0000
  C   C5656     1.0  0.74784  0.07902  0.59140  1.0000
  C   C5657     1.0  0.72928  0.05116  0.70987  1.0000
  C   C5658     1.0  0.69654  0.05226  0.71315  1.0000
  C   C5659     1.0  0.68986  0.05795  0.71365  1.0000
  C   C5660     1.0  0.75161  0.09346  0.81014  1.0000
  C   C5661     1.0  0.76333  0.07366  0.74464  1.0000
  C   C5662     1.0  0.78529  0.07633  0.76539  1.0000
  C   C5663     1.0  0.72072  0.03811  0.72116  1.0000
  C   C5664     1.0  0.78053  0.06112  0.70086  1.0000
  C   C5665     1.0  0.69259  0.64387  0.81790  1.0000
  C   C5666     1.0  0.71516  0.05765  0.81598  1.0000
  C   C5667     1.0  0.70510  0.09302  0.87717  1.0000
  C   C5668     1.0  0.72067  0.09720  0.87520  1.0000
  C   C5669     1.0  0.73087  0.04382  0.85863  1.0000
  C   C5670     1.0  0.75359  0.05073  0.87931  1.0000
  C   C5671     1.0  0.77318  0.06402  0.79261  1.0000
  C   C5672     1.0  0.76617  0.07691  0.83154  1.0000
  C   C5673     1.0  0.68816  0.05904  0.89743  1.0000
  C   C5674     1.0  0.71768  0.05141  0.92164  1.0000
  C   C5675     1.0  0.72253  0.06983  0.94707  1.0000
  C   C5676     1.0  0.71810  0.05340  0.97574  1.0000
  C   C5677     1.0  0.70904  0.04440  0.93857  1.0000
  C   C5678     1.0  0.78001  0.05088  0.99025  1.0000
  C   C5679     1.0  0.73810  0.06278  0.92271  1.0000
  C   C5680     1.0  0.77040  0.09089  0.92288  1.0000
  C   C5681     1.0  0.69441  0.12517  0.99826  1.0000
  C   C5682     1.0  0.75296  0.10707  0.02654  1.0000
  C   C5683     1.0  0.70168  0.11869  0.03529  1.0000
  C   C5684     1.0  0.73954  0.14405  0.03654  1.0000
  C   C5685     1.0  0.78206  0.11001  0.06525  1.0000
  C   C5686     1.0  0.77595  0.11630  0.05949  1.0000
  C   C5687     1.0  0.76024  0.12227  0.01474  1.0000
  C   C5688     1.0  0.78379  0.12848  0.06168  1.0000
  C   C5689     1.0  0.70591  0.08975  0.09446  1.0000
  C   C5690     1.0  0.75247  0.12021  0.13672  1.0000
  C   C5691     1.0  0.70927  0.14305  0.17898  1.0000
  C   C5692     1.0  0.70368  0.13823  0.16385  1.0000
  C   C5693     1.0  0.71239  0.08878  0.13940  1.0000
  C   C5694     1.0  0.73510  0.11970  0.16791  1.0000
  C   C5695     1.0  0.75065  0.14034  0.09359  1.0000
  C   C5696     1.0  0.77957  0.13577  0.12981  1.0000
  C   C5697     1.0  0.68140  0.10272  0.18868  1.0000
  C   C5698     1.0  0.74122  0.10939  0.21311  1.0000
  C   C5699     1.0  0.68308  0.11776  0.25369  1.0000
  C   C5700     1.0  0.74842  0.17048  0.29697  1.0000
  C   C5701     1.0  0.76371  0.10101  0.24984  1.0000
  C   C5702     1.0  0.77993  0.09769  0.31074  1.0000
  C   C5703     1.0  0.75944  0.13064  0.21090  1.0000
  C   C5704     1.0  0.80825  0.15348  0.20965  1.0000
  C   C5705     1.0  0.73306  0.09365  0.29106  1.0000
  C   C5706     1.0  0.71369  0.10755  0.35507  1.0000
  C   C5707     1.0  0.70873  0.09632  0.31842  1.0000
  C   C5708     1.0  0.74025  0.12599  0.36226  1.0000
  C   C5709     1.0  0.73571  0.07854  0.35676  1.0000
  C   C5710     1.0  0.75427  0.09152  0.37642  1.0000
  C   C5711     1.0  0.75810  0.10653  0.30230  1.0000
  C   C5712     1.0  0.78238  0.13817  0.33967  1.0000
  C   C5713     1.0  0.71944  0.06600  0.38796  1.0000
  C   C5714     1.0  0.71639  0.09923  0.43889  1.0000
  C   C5715     1.0  0.71258  0.13112  0.44143  1.0000
  C   C5716     1.0  0.70957  0.14407  0.47083  1.0000
  C   C5717     1.0  0.75373  0.10969  0.46006  1.0000
  C   C5718     1.0  0.77926  0.12931  0.47997  1.0000
  C   C5719     1.0  0.76513  0.13985  0.41453  1.0000
  C   C5720     1.0  0.79736  0.14360  0.44382  1.0000
  C   C5721     1.0  0.71430  0.11814  0.49295  1.0000
  C   C5722     1.0  0.73762  0.10300  0.53407  1.0000
  C   C5723     1.0  0.70081  0.12814  0.58479  1.0000
  C   C5724     1.0  0.72117  0.14514  0.57116  1.0000
  C   C5725     1.0  0.78564  0.10570  0.54357  1.0000
  C   C5726     1.0  0.77111  0.10567  0.52974  1.0000
  C   C5727     1.0  0.77060  0.13311  0.48778  1.0000
  C   C5728     1.0  0.79267  0.16541  0.49910  1.0000
  C   C5729     1.0  0.67470  0.09129  0.58168  1.0000
  C   C5730     1.0  0.75801  0.13937  0.62204  1.0000
  C   C5731     1.0  0.70337  0.13774  0.63217  1.0000
  C   C5732     1.0  0.75272  0.12590  0.68768  1.0000
  C   C5733     1.0  0.74139  0.09338  0.66281  1.0000
  C   C5734     1.0  0.77297  0.12214  0.69319  1.0000
  C   C5735     1.0  0.76552  0.12739  0.56128  1.0000
  C   C5736     1.0  0.74707  0.15031  0.63599  1.0000
  C   C5737     1.0  0.67085  0.08635  0.70302  1.0000
  C   C5738     1.0  0.74628  0.10697  0.74341  1.0000
  C   C5739     1.0  0.72284  0.13633  0.72570  1.0000
  C   C5740     1.0  0.72487  0.15915  0.78684  1.0000
  C   C5741     1.0  0.71200  0.10096  0.73625  1.0000
  C   C5742     1.0  0.77123  0.11453  0.77832  1.0000
  C   C5743     1.0  0.75000  0.12945  0.70371  1.0000
  C   C5744     1.0  0.76442  0.13568  0.72824  1.0000
  C   C5745     1.0  0.71553  0.09509  0.82901  1.0000
  C   C5746     1.0  0.72047  0.11565  0.83043  1.0000
  C   C5747     1.0  0.72510  0.11449  0.83543  1.0000
  C   C5748     1.0  0.74007  0.13634  0.89882  1.0000
  C   C5749     1.0  0.75087  0.11061  0.83381  1.0000
  C   C5750     1.0  0.73991  0.09794  0.90895  1.0000
  C   C5751     1.0  0.73412  0.13818  0.82701  1.0000
  C   C5752     1.0  0.78967  0.15465  0.84378  1.0000
  C   C5753     1.0  0.66165  0.08708  0.86882  1.0000
  C   C5754     1.0  0.74248  0.10987  0.88260  1.0000
  C   C5755     1.0  0.66856  0.13191  0.98190  1.0000
  C   C5756     1.0  0.74518  0.12112  0.93270  1.0000
  C   C5757     1.0  0.73830  0.12024  0.94348  1.0000
  C   C5758     1.0  0.79506  0.10979  0.96703  1.0000
  C   C5759     1.0  0.75905  0.13644  0.88035  1.0000
  C   C5760     1.0  0.76990  0.15460  0.95762  1.0000
  C   C5761     1.0  0.68977  0.15528  0.03506  1.0000
  C   C5762     1.0  0.71206  0.17872  0.02116  1.0000
  C   C5763     1.0  0.72244  0.18467  0.03967  1.0000
  C   C5764     1.0  0.79144  0.21329  0.05775  1.0000
  C   C5765     1.0  0.80145  0.14746  0.02814  1.0000
  C   C5766     1.0  0.79254  0.19332  0.07321  1.0000
  C   C5767     1.0  0.75474  0.16044  0.02068  1.0000
  C   C5768     1.0  0.77665  0.21031  0.01906  1.0000
  C   C5769     1.0  0.73191  0.15269  0.08598  1.0000
  C   C5770     1.0  0.73819  0.19053  0.12374  1.0000
  C   C5771     1.0  0.72336  0.18963  0.13286  1.0000
  C   C5772     1.0  0.76115  0.18481  0.14129  1.0000
  C   C5773     1.0  0.73066  0.15440  0.15036  1.0000
  C   C5774     1.0  0.74920  0.18416  0.15981  1.0000
  C   C5775     1.0  0.75339  0.20675  0.12034  1.0000
  C   C5776     1.0  0.75466  0.20328  0.16647  1.0000
  C   C5777     1.0  0.70344  0.14873  0.21066  1.0000
  C   C5778     1.0  0.69942  0.18720  0.26402  1.0000
  C   C5779     1.0  0.71866  0.19086  0.28295  1.0000
  C   C5780     1.0  0.69372  0.20840  0.26678  1.0000
  C   C5781     1.0  0.73071  0.16573  0.25079  1.0000
  C   C5782     1.0  0.78175  0.15902  0.28115  1.0000
  C   C5783     1.0  0.72884  0.17505  0.13895  1.0000
  C   C5784     1.0  0.77665  0.19260  0.19346  1.0000
  C   C5785     1.0  0.71599  0.14535  0.30906  1.0000
  C   C5786     1.0  0.71557  0.18513  0.35923  1.0000
  C   C5787     1.0  0.69790  0.20402  0.38250  1.0000
  C   C5788     1.0  0.72753  0.20772  0.40662  1.0000
  C   C5789     1.0  0.75052  0.16269  0.36595  1.0000
  C   C5790     1.0  0.75302  0.18721  0.33584  1.0000
  C   C5791     1.0  0.75053  0.17239  0.30947  1.0000
  C   C5792     1.0  0.79478  0.20538  0.33077  1.0000
  C   C5793     1.0  0.68094  0.15314  0.40849  1.0000
  C   C5794     1.0  0.72110  0.16804  0.40881  1.0000
  C   C5795     1.0  0.66800  0.16796  0.42940  1.0000
  C   C5796     1.0  0.65865  0.19859  0.46775  1.0000
  C   C5797     1.0  0.69098  0.17525  0.48151  1.0000
  C   C5798     1.0  0.80214  0.16848  0.47223  1.0000
  C   C5799     1.0  0.80657  0.17671  0.39158  1.0000
  C   C5800     1.0  0.76626  0.21415  0.42145  1.0000
  C   C5801     1.0  0.67867  0.18627  0.51572  1.0000
  C   C5802     1.0  0.67496  0.17969  0.53544  1.0000
  C   C5803     1.0  0.67426  0.18787  0.55730  1.0000
  C   C5804     1.0  0.73134  0.18610  0.58533  1.0000
  C   C5805     1.0  0.78637  0.12810  0.58201  1.0000
  C   C5806     1.0  0.76144  0.15947  0.59411  1.0000
  C   C5807     1.0  0.74942  0.17117  0.49025  1.0000
  C   C5808     1.0  0.75853  0.20004  0.54046  1.0000
  C   C5809     1.0  0.66507  0.17731  0.60475  1.0000
  C   C5810     1.0  0.71710  0.17868  0.66417  1.0000
  C   C5811     1.0  0.70612  0.18101  0.67199  1.0000
  C   C5812     1.0  0.71811  0.20004  0.62930  1.0000
  C   C5813     1.0  0.76601  0.16680  0.63183  1.0000
  C   C5814     1.0  0.78220  0.18597  0.68173  1.0000
  C   C5815     1.0  0.77193  0.18686  0.58099  1.0000
  C   C5816     1.0  0.76492  0.16546  0.62021  1.0000
  C   C5817     1.0  0.68269  0.15144  0.70813  1.0000
  C   C5818     1.0  0.74719  0.16027  0.68038  1.0000
  C   C5819     1.0  0.70308  0.18480  0.77940  1.0000
  C   C5820     1.0  0.74823  0.19264  0.73874  1.0000
  C   C5821     1.0  0.76871  0.14091  0.77486  1.0000
  C   C5822     1.0  0.78869  0.18713  0.77084  1.0000
  C   C5823     1.0  0.78108  0.19605  0.69962  1.0000
  C   C5824     1.0  0.77802  0.21336  0.75393  1.0000
  C   C5825     1.0  0.71413  0.15281  0.81693  1.0000
  C   C5826     1.0  0.73607  0.16827  0.81194  1.0000
  C   C5827     1.0  0.67952  0.18073  0.83774  1.0000
  C   C5828     1.0  0.75276  0.22186  0.85765  1.0000
  C   C5829     1.0  0.75622  0.13048  0.86562  1.0000
  C   C5830     1.0  0.79857  0.17669  0.88595  1.0000
  C   C5831     1.0  0.75114  0.19386  0.76805  1.0000
  C   C5832     1.0  0.76945  0.23261  0.84236  1.0000
  C   C5833     1.0  0.69994  0.16562  0.92006  1.0000
  C   C5834     1.0  0.71312  0.17907  0.90963  1.0000
  C   C5835     1.0  0.69917  0.21170  0.97841  1.0000
  C   C5836     1.0  0.73999  0.19033  0.97048  1.0000
  C   C5837     1.0  0.77965  0.13246  0.94090  1.0000
  C   C5838     1.0  0.78704  0.15256  0.94590  1.0000
  C   C5839     1.0  0.72133  0.19462  0.89428  1.0000
  C   C5840     1.0  0.79799  0.20312  0.91303  1.0000
  C   C5841     1.0  0.70097  0.21589  0.00644  1.0000
  C   C5842     1.0  0.72724  0.22670  0.04076  1.0000
  C   C5843     1.0  0.71849  0.22999  0.05182  1.0000
  C   C5844     1.0  0.74028  0.28622  0.03688  1.0000
  C   C5845     1.0  0.72346  0.21452  0.02673  1.0000
  C   C5846     1.0  0.78715  0.23394  0.08736  1.0000
  C   C5847     1.0  0.76216  0.23781  0.02516  1.0000
  C   C5848     1.0  0.73640  0.25540  0.98637  1.0000
  C   C5849     1.0  0.67526  0.22537  0.08826  1.0000
  C   C5850     1.0  0.75442  0.24877  0.13296  1.0000
  C   C5851     1.0  0.68669  0.20888  0.15380  1.0000
  C   C5852     1.0  0.75490  0.27908  0.17801  1.0000
  C   C5853     1.0  0.74282  0.23605  0.18404  1.0000
  C   C5854     1.0  0.76525  0.22377  0.18255  1.0000
  C   C5855     1.0  0.73443  0.24198  0.10849  1.0000
  C   C5856     1.0  0.72005  0.26347  0.11534  1.0000
  C   C5857     1.0  0.68597  0.20583  0.19367  1.0000
  C   C5858     1.0  0.69495  0.21940  0.20300  1.0000
  C   C5859     1.0  0.73167  0.26008  0.26821  1.0000
  C   C5860     1.0  0.69577  0.25874  0.29319  1.0000
  C   C5861     1.0  0.77648  0.21874  0.22530  1.0000
  C   C5862     1.0  0.76163  0.23397  0.26851  1.0000
  C   C5863     1.0  0.73512  0.25876  0.24029  1.0000
  C   C5864     1.0  0.73796  0.25416  0.23618  1.0000
  C   C5865     1.0  0.70062  0.22960  0.29204  1.0000
  C   C5866     1.0  0.71451  0.22838  0.32533  1.0000
  C   C5867     1.0  0.68347  0.24593  0.36319  1.0000
  C   C5868     1.0  0.69638  0.28069  0.39249  1.0000
  C   C5869     1.0  0.73985  0.22207  0.36255  1.0000
  C   C5870     1.0  0.75009  0.23490  0.36895  1.0000
  C   C5871     1.0  0.75025  0.23670  0.28919  1.0000
  C   C5872     1.0  0.80998  0.26204  0.30419  1.0000
  C   C5873     1.0  0.72115  0.24951  0.41793  1.0000
  C   C5874     1.0  0.74445  0.23978  0.41219  1.0000
  C   C5875     1.0  0.73754  0.25984  0.43551  1.0000
  C   C5876     1.0  0.71766  0.27099  0.51152  1.0000
  C   C5877     1.0  0.71891  0.20230  0.45779  1.0000
  C   C5878     1.0  0.75835  0.20759  0.45146  1.0000
  C   C5879     1.0  0.73385  0.25195  0.40234  1.0000
  C   C5880     1.0  0.76887  0.26914  0.44347  1.0000
  C   C5881     1.0  0.68326  0.22401  0.52576  1.0000
  C   C5882     1.0  0.69320  0.23737  0.55046  1.0000
  C   C5883     1.0  0.68363  0.24703  0.52750  1.0000
  C   C5884     1.0  0.70993  0.26065  0.55198  1.0000
  C   C5885     1.0  0.73388  0.22249  0.59297  1.0000
  C   C5886     1.0  0.78335  0.22150  0.58451  1.0000
  C   C5887     1.0  0.72190  0.23374  0.49930  1.0000
  C   C5888     1.0  0.77566  0.27554  0.50764  1.0000
  C   C5889     1.0  0.72245  0.20306  0.59651  1.0000
  C   C5890     1.0  0.69609  0.25066  0.64298  1.0000
  C   C5891     1.0  0.72532  0.24756  0.68321  1.0000
  C   C5892     1.0  0.72664  0.27554  0.70678  1.0000
  C   C5893     1.0  0.74521  0.23985  0.67317  1.0000
  C   C5894     1.0  0.75115  0.23345  0.67010  1.0000
  C   C5895     1.0  0.77024  0.27077  0.60557  1.0000
  C   C5896     1.0  0.77133  0.26223  0.59041  1.0000
  C   C5897     1.0  0.68582  0.21322  0.68857  1.0000
  C   C5898     1.0  0.71470  0.23426  0.74579  1.0000
  C   C5899     1.0  0.70438  0.24374  0.73634  1.0000
  C   C5900     1.0  0.76373  0.25082  0.74870  1.0000
  C   C5901     1.0  0.73645  0.22274  0.76236  1.0000
  C   C5902     1.0  0.77363  0.22375  0.78251  1.0000
  C   C5903     1.0  0.75994  0.22654  0.71104  1.0000
  C   C5904     1.0  0.78380  0.28234  0.73410  1.0000
  C   C5905     1.0  0.73190  0.22433  0.79318  1.0000
  C   C5906     1.0  0.73563  0.25214  0.83252  1.0000
  C   C5907     1.0  0.70178  0.26161  0.89518  1.0000
  C   C5908     1.0  0.73387  0.26963  0.85951  1.0000
  C   C5909     1.0  0.75518  0.21091  0.81149  1.0000
  C   C5910     1.0  0.79234  0.25420  0.87788  1.0000
  C   C5911     1.0  0.73178  0.24185  0.83487  1.0000
  C   C5912     1.0  0.75239  0.26922  0.82421  1.0000
  C   C5913     1.0  0.69711  0.23441  0.94260  1.0000
  C   C5914     1.0  0.74795  0.25095  0.87093  1.0000
  C   C5915     1.0  0.67980  0.24168  0.92668  1.0000
  C   C5916     1.0  0.71840  0.24685  0.95862  1.0000
  C   C5917     1.0  0.71291  0.19930  0.94096  1.0000
  C   C5918     1.0  0.75827  0.25692  0.01270  1.0000
  C   C5919     1.0  0.75703  0.26393  0.91575  1.0000
  C   C5920     1.0  0.80516  0.25423  0.95437  1.0000
  C   C5921     1.0  0.70885  0.27427  0.02098  1.0000
  C   C5922     1.0  0.70770  0.30511  0.06137  1.0000
  C   C5923     1.0  0.67165  0.30758  0.06606  1.0000
  C   C5924     1.0  0.74540  0.31210  0.06953  1.0000
  C   C5925     1.0  0.77858  0.27481  0.98265  1.0000
  C   C5926     1.0  0.81406  0.31392  0.08714  1.0000
  C   C5927     1.0  0.75492  0.30003  0.00778  1.0000
  C   C5928     1.0  0.79579  0.31354  0.03440  1.0000
  C   C5929     1.0  0.67545  0.27444  0.15388  1.0000
  C   C5930     1.0  0.72273  0.28789  0.11773  1.0000
  C   C5931     1.0  0.69453  0.30877  0.20116  1.0000
  C   C5932     1.0  0.73648  0.33446  0.17252  1.0000
  C   C5933     1.0  0.73361  0.26347  0.19737  1.0000
  C   C5934     1.0  0.77728  0.28442  0.13754  1.0000
  C   C5935     1.0  0.74858  0.30944  0.12780  1.0000
  C   C5936     1.0  0.78306  0.33729  0.12548  1.0000
  C   C5937     1.0  0.72469  0.30980  0.19169  1.0000
  C   C5938     1.0  0.71999  0.30584  0.23215  1.0000
  C   C5939     1.0  0.70150  0.32570  0.21687  1.0000
  C   C5940     1.0  0.72383  0.31265  0.28911  1.0000
  C   C5941     1.0  0.71175  0.26241  0.25042  1.0000
  C   C5942     1.0  0.78091  0.29386  0.31451  1.0000
  C   C5943     1.0  0.74747  0.29939  0.18178  1.0000
  C   C5944     1.0  0.75425  0.30944  0.19145  1.0000
  C   C5945     1.0  0.72928  0.29947  0.28471  1.0000
  C   C5946     1.0  0.71735  0.29695  0.28651  1.0000
  C   C5947     1.0  0.67674  0.30579  0.35928  1.0000
  C   C5948     1.0  0.72558  0.33838  0.38779  1.0000
  C   C5949     1.0  0.78181  0.28227  0.37530  1.0000
  C   C5950     1.0  0.77124  0.30121  0.38670  1.0000
  C   C5951     1.0  0.74871  0.30794  0.26264  1.0000
  C   C5952     1.0  0.78562  0.31123  0.35522  1.0000
  C   C5953     1.0  0.68521  0.28314  0.42870  1.0000
  C   C5954     1.0  0.69495  0.27825  0.41870  1.0000
  C   C5955     1.0  0.73941  0.28631  0.43773  1.0000
  C   C5956     1.0  0.74388  0.33196  0.46832  1.0000
  C   C5957     1.0  0.74791  0.29467  0.42563  1.0000
  C   C5958     1.0  0.74108  0.29860  0.46429  1.0000
  C   C5959     1.0  0.74097  0.31364  0.42926  1.0000
  C   C5960     1.0  0.79462  0.31879  0.40911  1.0000
  C   C5961     1.0  0.68279  0.27479  0.48927  1.0000
  C   C5962     1.0  0.73264  0.27438  0.46807  1.0000
  C   C5963     1.0  0.74423  0.33369  0.54214  1.0000
  C   C5964     1.0  0.74236  0.31028  0.57606  1.0000
  C   C5965     1.0  0.77207  0.26229  0.56399  1.0000
  C   C5966     1.0  0.76302  0.28694  0.57932  1.0000
  C   C5967     1.0  0.76319  0.32818  0.47836  1.0000
  C   C5968     1.0  0.79519  0.34718  0.54034  1.0000
  C   C5969     1.0  0.70219  0.28344  0.58353  1.0000
  C   C5970     1.0  0.72342  0.28827  0.64752  1.0000
  C   C5971     1.0  0.70954  0.30113  0.67967  1.0000
  C   C5972     1.0  0.70101  0.33244  0.67644  1.0000
  C   C5973     1.0  0.75779  0.28110  0.64533  1.0000
  C   C5974     1.0  0.75911  0.29566  0.63539  1.0000
  C   C5975     1.0  0.75306  0.30561  0.56967  1.0000
  C   C5976     1.0  0.78003  0.32858  0.63274  1.0000
  C   C5977     1.0  0.74817  0.28818  0.68906  1.0000
  C   C5978     1.0  0.73794  0.29945  0.69537  1.0000
  C   C5979     1.0  0.65527  0.32747  0.75762  1.0000
  C   C5980     1.0  0.72891  0.30630  0.78298  1.0000
  C   C5981     1.0  0.74425  0.27237  0.78946  1.0000
  C   C5982     1.0  0.79297  0.29420  0.74750  1.0000
  C   C5983     1.0  0.75540  0.29883  0.67572  1.0000
  C   C5984     1.0  0.79199  0.32511  0.75447  1.0000
  C   C5985     1.0  0.68602  0.29281  0.78310  1.0000
  C   C5986     1.0  0.73009  0.29688  0.81447  1.0000
  C   C5987     1.0  0.70125  0.31316  0.84831  1.0000
  C   C5988     1.0  0.71727  0.34709  0.87436  1.0000
  C   C5989     1.0  0.75320  0.29588  0.88338  1.0000
  C   C5990     1.0  0.82820  0.30749  0.90457  1.0000
  C   C5991     1.0  0.75928  0.30432  0.76065  1.0000
  C   C5992     1.0  0.75841  0.32423  0.81333  1.0000
  C   C5993     1.0  0.68573  0.27692  0.89731  1.0000
  C   C5994     1.0  0.76077  0.29557  0.96434  1.0000
  C   C5995     1.0  0.73122  0.30647  0.97334  1.0000
  C   C5996     1.0  0.71193  0.35290  0.97563  1.0000
  C   C5997     1.0  0.74121  0.25744  0.93474  1.0000
  C   C5998     1.0  0.77644  0.30135  0.97576  1.0000
  C   C5999     1.0  0.74223  0.27849  0.88652  1.0000
  C   C6000     1.0  0.84316  0.30926  0.92179  1.0000
  C   C6001     1.0  0.67923  0.35053  0.99532  1.0000
  C   C6002     1.0  0.72847  0.34331  0.03688  1.0000
  C   C6003     1.0  0.67754  0.36757  0.02975  1.0000
  C   C6004     1.0  0.71339  0.38769  0.07159  1.0000
  C   C6005     1.0  0.73294  0.36705  0.07346  1.0000
  C   C6006     1.0  0.83298  0.36809  0.08774  1.0000
  C   C6007     1.0  0.77213  0.38884  0.99544  1.0000
  C   C6008     1.0  0.77331  0.41330  0.05033  1.0000
  C   C6009     1.0  0.68692  0.33684  0.10342  1.0000
  C   C6010     1.0  0.74668  0.35565  0.11564  1.0000
  C   C6011     1.0  0.70186  0.38457  0.13643  1.0000
  C   C6012     1.0  0.71934  0.37413  0.16438  1.0000
  C   C6013     1.0  0.72371  0.33227  0.15190  1.0000
  C   C6014     1.0  0.72673  0.39509  0.17093  1.0000
  C   C6015     1.0  0.73540  0.35920  0.10802  1.0000
  C   C6016     1.0  0.77490  0.37977  0.09284  1.0000
  C   C6017     1.0  0.69121  0.33721  0.16037  1.0000
  C   C6018     1.0  0.75350  0.37307  0.22448  1.0000
  C   C6019     1.0  0.69071  0.36302  0.22869  1.0000
  C   C6020     1.0  0.71963  0.39171  0.27267  1.0000
  C   C6021     1.0  0.71257  0.34277  0.25188  1.0000
  C   C6022     1.0  0.76201  0.35806  0.24297  1.0000
  C   C6023     1.0  0.78334  0.35760  0.21834  1.0000
  C   C6024     1.0  0.81283  0.39263  0.25542  1.0000
  C   C6025     1.0  0.68197  0.33634  0.30950  1.0000
  C   C6026     1.0  0.76652  0.36610  0.29928  1.0000
  C   C6027     1.0  0.68865  0.35012  0.34384  1.0000
  C   C6028     1.0  0.70550  0.38296  0.37105  1.0000
  C   C6029     1.0  0.75905  0.33353  0.34996  1.0000
  C   C6030     1.0  0.79400  0.32771  0.38960  1.0000
  C   C6031     1.0  0.72402  0.35173  0.30361  1.0000
  C   C6032     1.0  0.77174  0.36676  0.34508  1.0000
  C   C6033     1.0  0.68858  0.33689  0.37589  1.0000
  C   C6034     1.0  0.74619  0.35751  0.43255  1.0000
  C   C6035     1.0  0.73582  0.37725  0.44873  1.0000
  C   C6036     1.0  0.69723  0.36870  0.48889  1.0000
  C   C6037     1.0  0.73874  0.35439  0.43867  1.0000
  C   C6038     1.0  0.78412  0.34974  0.47379  1.0000
  C   C6039     1.0  0.74485  0.39915  0.40129  1.0000
  C   C6040     1.0  0.79201  0.38307  0.43941  1.0000
  C   C6041     1.0  0.69198  0.35130  0.49756  1.0000
  C   C6042     1.0  0.71971  0.35422  0.52481  1.0000
  C   C6043     1.0  0.68463  0.36671  0.54413  1.0000
  C   C6044     1.0  0.75389  0.36766  0.60533  1.0000
  C   C6045     1.0  0.74580  0.33359  0.54800  1.0000
  C   C6046     1.0  0.76869  0.32983  0.57662  1.0000
  C   C6047     1.0  0.76120  0.35239  0.52167  1.0000
  C   C6048     1.0  0.79528  0.39486  0.56371  1.0000
  C   C6049     1.0  0.70310  0.34926  0.61518  1.0000
  C   C6050     1.0  0.72376  0.33751  0.63953  1.0000
  C   C6051     1.0  0.70401  0.37210  0.65113  1.0000
  C   C6052     1.0  0.70755  0.38050  0.67966  1.0000
  C   C6053     1.0  0.75089  0.32704  0.66116  1.0000
  C   C6054     1.0  0.79785  0.36074  0.68210  1.0000
  C   C6055     1.0  0.75701  0.37223  0.65269  1.0000
  C   C6056     1.0  0.78167  0.40714  0.62567  1.0000
  C   C6057     1.0  0.69258  0.31056  0.69860  1.0000
  C   C6058     1.0  0.69636  0.36255  0.68507  1.0000
  C   C6059     1.0  0.67410  0.37930  0.73876  1.0000
  C   C6060     1.0  0.70332  0.38748  0.79065  1.0000
  C   C6061     1.0  0.75350  0.34078  0.75883  1.0000
  C   C6062     1.0  0.74385  0.34567  0.78991  1.0000
  C   C6063     1.0  0.74921  0.35992  0.67394  1.0000
  C   C6064     1.0  0.79545  0.40958  0.69168  1.0000
  C   C6065     1.0  0.70584  0.31961  0.80052  1.0000
  C   C6066     1.0  0.76139  0.36375  0.83627  1.0000
  C   C6067     1.0  0.70587  0.37983  0.81696  1.0000
  C   C6068     1.0  0.67605  0.39519  0.84683  1.0000
  C   C6069     1.0  0.74941  0.33662  0.82620  1.0000
  C   C6070     1.0  0.79304  0.35825  0.92050  1.0000
  C   C6071     1.0  0.74349  0.38270  0.79442  1.0000
  C   C6072     1.0  0.77247  0.37911  0.83149  1.0000
  C   C6073     1.0  0.69847  0.33343  0.88412  1.0000
  C   C6074     1.0  0.72865  0.34688  0.92837  1.0000
  C   C6075     1.0  0.70180  0.36250  0.96031  1.0000
  C   C6076     1.0  0.73085  0.39579  0.97527  1.0000
  C   C6077     1.0  0.75855  0.34193  0.99246  1.0000
  C   C6078     1.0  0.72633  0.33961  0.95612  1.0000
  C   C6079     1.0  0.71982  0.36601  0.90876  1.0000
  C   C6080     1.0  0.76501  0.37545  0.90345  1.0000
  C   C6081     1.0  0.75095  0.41456  0.00139  1.0000
  C   C6082     1.0  0.73004  0.40494  0.98342  1.0000
  C   C6083     1.0  0.69536  0.41533  0.09102  1.0000
  C   C6084     1.0  0.71616  0.47204  0.07671  1.0000
  C   C6085     1.0  0.72320  0.41339  0.05062  1.0000
  C   C6086     1.0  0.76960  0.42676  0.08910  1.0000
  C   C6087     1.0  0.74573  0.44397  0.99362  1.0000
  C   C6088     1.0  0.79711  0.44010  0.98861  1.0000
  C   C6089     1.0  0.69755  0.39493  0.10911  1.0000
  C   C6090     1.0  0.73176  0.40702  0.15213  1.0000
  C   C6091     1.0  0.70103  0.41691  0.16669  1.0000
  C   C6092     1.0  0.72770  0.45058  0.18318  1.0000
  C   C6093     1.0  0.75194  0.40195  0.11788  1.0000
  C   C6094     1.0  0.75839  0.42574  0.14446  1.0000
  C   C6095     1.0  0.72408  0.42909  0.11240  1.0000
  C   C6096     1.0  0.80028  0.43780  0.10980  1.0000
  C   C6097     1.0  0.70657  0.39997  0.22564  1.0000
  C   C6098     1.0  0.71037  0.41795  0.22859  1.0000
  C   C6099     1.0  0.67484  0.44473  0.24758  1.0000
  C   C6100     1.0  0.70913  0.43454  0.23667  1.0000
  C   C6101     1.0  0.72268  0.38975  0.26151  1.0000
  C   C6102     1.0  0.80699  0.43996  0.27007  1.0000
  C   C6103     1.0  0.76471  0.43292  0.18928  1.0000
  C   C6104     1.0  0.79776  0.43287  0.20944  1.0000
  C   C6105     1.0  0.70448  0.38906  0.30540  1.0000
  C   C6106     1.0  0.70118  0.40730  0.31631  1.0000
  C   C6107     1.0  0.73679  0.41518  0.37229  1.0000
  C   C6108     1.0  0.70803  0.45367  0.37298  1.0000
  C   C6109     1.0  0.74906  0.38616  0.40516  1.0000
  C   C6110     1.0  0.78507  0.41144  0.39362  1.0000
  C   C6111     1.0  0.77641  0.44039  0.31643  1.0000
  C   C6112     1.0  0.79553  0.45340  0.35616  1.0000
  C   C6113     1.0  0.70830  0.42325  0.37355  1.0000
  C   C6114     1.0  0.69679  0.40825  0.40489  1.0000
  C   C6115     1.0  0.68824  0.42444  0.39603  1.0000
  C   C6116     1.0  0.69423  0.42263  0.47565  1.0000
  C   C6117     1.0  0.73125  0.41656  0.43381  1.0000
  C   C6118     1.0  0.78456  0.42939  0.47017  1.0000
  C   C6119     1.0  0.73123  0.40684  0.34893  1.0000
  C   C6120     1.0  0.77577  0.45184  0.45493  1.0000
  C   C6121     1.0  0.72038  0.38848  0.49014  1.0000
  C   C6122     1.0  0.71280  0.43197  0.52360  1.0000
  C   C6123     1.0  0.68225  0.44902  0.55810  1.0000
  C   C6124     1.0  0.72673  0.46291  0.58321  1.0000
  C   C6125     1.0  0.75163  0.38715  0.55167  1.0000
  C   C6126     1.0  0.77197  0.41016  0.58398  1.0000
  C   C6127     1.0  0.72398  0.46931  0.47504  1.0000
  C   C6128     1.0  0.74854  0.43822  0.53861  1.0000
  C   C6129     1.0  0.70244  0.38423  0.62279  1.0000
  C   C6130     1.0  0.71768  0.42485  0.64107  1.0000
  C   C6131     1.0  0.69972  0.41186  0.62295  1.0000
  C   C6132     1.0  0.76328  0.44297  0.69580  1.0000
  C   C6133     1.0  0.74110  0.43608  0.59713  1.0000
  C   C6134     1.0  0.75898  0.38925  0.65009  1.0000
  C   C6135     1.0  0.77885  0.42285  0.61325  1.0000
  C   C6136     1.0  0.79440  0.45401  0.65975  1.0000
  C   C6137     1.0  0.66522  0.40940  0.70089  1.0000
  C   C6138     1.0  0.75261  0.44061  0.72016  1.0000
  C   C6139     1.0  0.71264  0.45829  0.74215  1.0000
  C   C6140     1.0  0.73269  0.44053  0.77094  1.0000
  C   C6141     1.0  0.72582  0.40861  0.76002  1.0000
  C   C6142     1.0  0.73026  0.42362  0.77692  1.0000
  C   C6143     1.0  0.74380  0.44328  0.70311  1.0000
  C   C6144     1.0  0.76592  0.45904  0.73056  1.0000
  C   C6145     1.0  0.73394  0.38605  0.74356  1.0000
  C   C6146     1.0  0.74182  0.39699  0.80248  1.0000
  C   C6147     1.0  0.70917  0.45576  0.85414  1.0000
  C   C6148     1.0  0.72640  0.45133  0.88764  1.0000
  C   C6149     1.0  0.73601  0.42318  0.85165  1.0000
  C   C6150     1.0  0.78608  0.40112  0.89502  1.0000
  C   C6151     1.0  0.74965  0.42656  0.81233  1.0000
  C   C6152     1.0  0.80117  0.42578  0.79961  1.0000
  C   C6153     1.0  0.69448  0.39649  0.89169  1.0000
  C   C6154     1.0  0.69865  0.42810  0.93175  1.0000
  C   C6155     1.0  0.65883  0.42671  0.90919  1.0000
  C   C6156     1.0  0.71784  0.46049  0.94302  1.0000
  C   C6157     1.0  0.73979  0.41287  0.94552  1.0000
  C   C6158     1.0  0.76289  0.41692  0.97197  1.0000
  C   C6159     1.0  0.76080  0.42801  0.93190  1.0000
  C   C6160     1.0  0.75295  0.46498  0.93643  1.0000
  C   C6161     1.0  0.68935  0.46089  0.99572  1.0000
  C   C6162     1.0  0.69790  0.48385  0.01820  1.0000
  C   C6163     1.0  0.69512  0.50861  0.01762  1.0000
  C   C6164     1.0  0.66435  0.51663  0.06947  1.0000
  C   C6165     1.0  0.76509  0.43539  0.05007  1.0000
  C   C6166     1.0  0.79540  0.46580  0.06131  1.0000
  C   C6167     1.0  0.73447  0.46152  0.99474  1.0000
  C   C6168     1.0  0.75973  0.50126  0.02709  1.0000
  C   C6169     1.0  0.72369  0.44912  0.13235  1.0000
  C   C6170     1.0  0.72312  0.47410  0.13076  1.0000
  C   C6171     1.0  0.69219  0.49602  0.14647  1.0000
  C   C6172     1.0  0.72081  0.50846  0.17430  1.0000
  C   C6173     1.0  0.70630  0.45916  0.16235  1.0000
  C   C6174     1.0  0.77311  0.47586  0.18324  1.0000
  C   C6175     1.0  0.73783  0.51298  0.14969  1.0000
  C   C6176     1.0  0.76988  0.50687  0.12561  1.0000
  C   C6177     1.0  0.68668  0.48325  0.22192  1.0000
  C   C6178     1.0  0.73118  0.47694  0.22483  1.0000
  C   C6179     1.0  0.76923  0.48984  0.29507  1.0000
  C   C6180     1.0  0.76157  0.49301  0.30057  1.0000
  C   C6181     1.0  0.73216  0.46819  0.23802  1.0000
  C   C6182     1.0  0.73575  0.46218  0.24537  1.0000
  C   C6183     1.0  0.76946  0.48037  0.23719  1.0000
  C   C6184     1.0  0.74907  0.51093  0.21971  1.0000
  C   C6185     1.0  0.72936  0.48239  0.34694  1.0000
  C   C6186     1.0  0.75701  0.48178  0.29348  1.0000
  C   C6187     1.0  0.70736  0.48223  0.34481  1.0000
  C   C6188     1.0  0.72150  0.48291  0.35353  1.0000
  C   C6189     1.0  0.75829  0.46823  0.35104  1.0000
  C   C6190     1.0  0.76188  0.49121  0.38077  1.0000
  C   C6191     1.0  0.76350  0.49867  0.31072  1.0000
  C   C6192     1.0  0.76068  0.53235  0.30073  1.0000
  C   C6193     1.0  0.74185  0.44421  0.42295  1.0000
  C   C6194     1.0  0.75693  0.46950  0.37420  1.0000
  C   C6195     1.0  0.71437  0.49511  0.41247  1.0000
  C   C6196     1.0  0.73545  0.49895  0.50207  1.0000
  C   C6197     1.0  0.75732  0.47872  0.43534  1.0000
  C   C6198     1.0  0.77576  0.48282  0.46021  1.0000
  C   C6199     1.0  0.76049  0.50112  0.38152  1.0000
  C   C6200     1.0  0.75565  0.49436  0.44889  1.0000
  C   C6201     1.0  0.71466  0.48858  0.54307  1.0000
  C   C6202     1.0  0.74806  0.48971  0.54100  1.0000
  C   C6203     1.0  0.69856  0.50858  0.54611  1.0000
  C   C6204     1.0  0.72694  0.49898  0.53976  1.0000
  C   C6205     1.0  0.71219  0.45384  0.56278  1.0000
  C   C6206     1.0  0.79022  0.49200  0.58402  1.0000
  C   C6207     1.0  0.74120  0.46433  0.52940  1.0000
  C   C6208     1.0  0.83153  0.51403  0.53792  1.0000
  C   C6209     1.0  0.68200  0.48850  0.62629  1.0000
  C   C6210     1.0  0.71653  0.49615  0.62768  1.0000
  C   C6211     1.0  0.70136  0.49482  0.66318  1.0000
  C   C6212     1.0  0.72155  0.52490  0.66696  1.0000
  C   C6213     1.0  0.75796  0.46846  0.64320  1.0000
  C   C6214     1.0  0.79872  0.46598  0.69455  1.0000
  C   C6215     1.0  0.72896  0.48983  0.62407  1.0000
  C   C6216     1.0  0.75717  0.49550  0.64223  1.0000
  C   C6217     1.0  0.72379  0.45898  0.71662  1.0000
  C   C6218     1.0  0.73181  0.46152  0.72181  1.0000
  C   C6219     1.0  0.69811  0.52616  0.73759  1.0000
  C   C6220     1.0  0.73791  0.50218  0.80421  1.0000
  C   C6221     1.0  0.77474  0.48149  0.76502  1.0000
  C   C6222     1.0  0.76158  0.47459  0.75326  1.0000
  C   C6223     1.0  0.76146  0.46218  0.69518  1.0000
  C   C6224     1.0  0.76530  0.51234  0.70861  1.0000
  C   C6225     1.0  0.70219  0.45486  0.80532  1.0000
  C   C6226     1.0  0.72754  0.49217  0.81534  1.0000
  C   C6227     1.0  0.66606  0.46541  0.87239  1.0000
  C   C6228     1.0  0.71359  0.50838  0.87915  1.0000
  C   C6229     1.0  0.75316  0.48191  0.86835  1.0000
  C   C6230     1.0  0.76501  0.47452  0.89356  1.0000
  C   C6231     1.0  0.76134  0.48816  0.76345  1.0000
  C   C6232     1.0  0.77477  0.51211  0.82705  1.0000
  C   C6233     1.0  0.70532  0.47564  0.85175  1.0000
  C   C6234     1.0  0.71928  0.48156  0.90311  1.0000
  C   C6235     1.0  0.68532  0.50559  0.96700  1.0000
  C   C6236     1.0  0.68758  0.52136  0.02099  1.0000
  C   C6237     1.0  0.74706  0.44275  0.97839  1.0000
  C   C6238     1.0  0.75423  0.47764  0.96712  1.0000
  C   C6239     1.0  0.73306  0.50136  0.85300  1.0000
  C   C6240     1.0  0.79352  0.48370  0.90511  1.0000
  C   C6241     1.0  0.66548  0.53075  0.02692  1.0000
  C   C6242     1.0  0.76359  0.55915  0.05733  1.0000
  C   C6243     1.0  0.71122  0.54515  0.02495  1.0000
  C   C6244     1.0  0.73074  0.55287  0.09054  1.0000
  C   C6245     1.0  0.73727  0.51463  0.06927  1.0000
  C   C6246     1.0  0.79819  0.54572  0.08338  1.0000
  C   C6247     1.0  0.72752  0.56287  0.99071  1.0000
  C   C6248     1.0  0.80331  0.58282  0.99287  1.0000
  C   C6249     1.0  0.67083  0.52370  0.12173  1.0000
  C   C6250     1.0  0.68496  0.55889  0.14143  1.0000
  C   C6251     1.0  0.72865  0.57036  0.14740  1.0000
  C   C6252     1.0  0.73086  0.59284  0.19184  1.0000
  C   C6253     1.0  0.77322  0.52917  0.17586  1.0000
  C   C6254     1.0  0.78942  0.54147  0.22030  1.0000
  C   C6255     1.0  0.76446  0.55487  0.08014  1.0000
  C   C6256     1.0  0.81046  0.55905  0.12860  1.0000
  C   C6257     1.0  0.70433  0.51112  0.22075  1.0000
  C   C6258     1.0  0.71692  0.52446  0.20915  1.0000
  C   C6259     1.0  0.69953  0.54219  0.24145  1.0000
  C   C6260     1.0  0.74171  0.58424  0.25660  1.0000
  C   C6261     1.0  0.76704  0.52713  0.21921  1.0000
  C   C6262     1.0  0.77741  0.56002  0.22238  1.0000
  C   C6263     1.0  0.73974  0.56245  0.25068  1.0000
  C   C6264     1.0  0.77561  0.58913  0.23666  1.0000
  C   C6265     1.0  0.65682  0.53613  0.32010  1.0000
  C   C6266     1.0  0.72807  0.54643  0.35921  1.0000
  C   C6267     1.0  0.74864  0.56048  0.34900  1.0000
  C   C6268     1.0  0.73809  0.59524  0.39733  1.0000
  C   C6269     1.0  0.73780  0.52346  0.35919  1.0000
  C   C6270     1.0  0.78612  0.53138  0.38346  1.0000
  C   C6271     1.0  0.75187  0.55778  0.31201  1.0000
  C   C6272     1.0  0.76394  0.54662  0.32001  1.0000
  C   C6273     1.0  0.72211  0.51899  0.40621  1.0000
  C   C6274     1.0  0.72485  0.52263  0.42825  1.0000
  C   C6275     1.0  0.70693  0.54464  0.44826  1.0000
  C   C6276     1.0  0.71337  0.55949  0.48461  1.0000
  C   C6277     1.0  0.77838  0.53276  0.45047  1.0000
  C   C6278     1.0  0.75361  0.54801  0.46847  1.0000
  C   C6279     1.0  0.73145  0.56704  0.36676  1.0000
  C   C6280     1.0  0.75977  0.54898  0.40751  1.0000
  C   C6281     1.0  0.68127  0.52591  0.49761  1.0000
  C   C6282     1.0  0.74836  0.55731  0.56499  1.0000
  C   C6283     1.0  0.67041  0.55959  0.60724  1.0000
  C   C6284     1.0  0.75022  0.56215  0.59421  1.0000
  C   C6285     1.0  0.74848  0.51881  0.54098  1.0000
  C   C6286     1.0  0.77347  0.55751  0.60475  1.0000
  C   C6287     1.0  0.78159  0.53803  0.50782  1.0000
  C   C6288     1.0  0.75446  0.54853  0.51702  1.0000
  C   C6289     1.0  0.73247  0.51311  0.60903  1.0000
  C   C6290     1.0  0.72129  0.53654  0.63813  1.0000
  C   C6291     1.0  0.65813  0.57745  0.65187  1.0000
  C   C6292     1.0  0.74446  0.57247  0.65058  1.0000
  C   C6293     1.0  0.77554  0.51558  0.63848  1.0000
  C   C6294     1.0  0.81762  0.55586  0.70488  1.0000
  C   C6295     1.0  0.73123  0.55453  0.62666  1.0000
  C   C6296     1.0  0.77836  0.56937  0.61885  1.0000
  C   C6297     1.0  0.72206  0.52233  0.65446  1.0000
  C   C6298     1.0  0.70918  0.53486  0.73247  1.0000
  C   C6299     1.0  0.68879  0.54778  0.76630  1.0000
  C   C6300     1.0  0.72126  0.58063  0.77469  1.0000
  C   C6301     1.0  0.78454  0.53277  0.76273  1.0000
  C   C6302     1.0  0.79717  0.54630  0.78217  1.0000
  C   C6303     1.0  0.73796  0.55037  0.70809  1.0000
  C   C6304     1.0  0.77285  0.57432  0.72999  1.0000
  C   C6305     1.0  0.69600  0.49860  0.81979  1.0000
  C   C6306     1.0  0.74298  0.52458  0.79130  1.0000
  C   C6307     1.0  0.68407  0.55876  0.85358  1.0000
  C   C6308     1.0  0.75451  0.56440  0.87438  1.0000
  C   C6309     1.0  0.75838  0.54072  0.80744  1.0000
  C   C6310     1.0  0.78290  0.55872  0.87027  1.0000
  C   C6311     1.0  0.77367  0.55373  0.76453  1.0000
  C   C6312     1.0  0.77080  0.58324  0.82855  1.0000
  C   C6313     1.0  0.69496  0.49940  0.91253  1.0000
  C   C6314     1.0  0.69047  0.53237  0.92651  1.0000
  C   C6315     1.0  0.70911  0.54733  0.98197  1.0000
  C   C6316     1.0  0.72999  0.56648  0.96494  1.0000
  C   C6317     1.0  0.77488  0.51589  0.01034  1.0000
  C   C6318     1.0  0.81313  0.54698  0.97190  1.0000
  C   C6319     1.0  0.78358  0.55205  0.91737  1.0000
  C   C6320     1.0  0.80749  0.56330  0.91491  1.0000
  C   C6321     1.0  0.68869  0.56558  0.99696  1.0000
  C   C6322     1.0  0.71124  0.58822  0.02508  1.0000
  C   C6323     1.0  0.69302  0.61992  0.06338  1.0000
  C   C6324     1.0  0.73705  0.63487  0.04969  1.0000
  C   C6325     1.0  0.76215  0.57683  0.00065  1.0000
  C   C6326     1.0  0.74973  0.62376  0.06702  1.0000
  C   C6327     1.0  0.75980  0.59965  0.97561  1.0000
  C   C6328     1.0  0.77595  0.60315  0.03229  1.0000
  C   C6329     1.0  0.68636  0.58873  0.08988  1.0000
  C   C6330     1.0  0.71424  0.59717  0.14158  1.0000
  C   C6331     1.0  0.68310  0.61845  0.18078  1.0000
  C   C6332     1.0  0.70377  0.60333  0.21373  1.0000
  C   C6333     1.0  0.72058  0.58326  0.15079  1.0000
  C   C6334     1.0  0.81767  0.60124  0.17618  1.0000
  C   C6335     1.0  0.73695  0.62244  0.08356  1.0000
  C   C6336     1.0  0.73722  0.03485  0.09129  1.0000
  C   C6337     1.0  0.72447  0.57934  0.16626  1.0000
  C   C6338     1.0  0.71859  0.59239  0.22744  1.0000
  C   C6339     1.0  0.68598  0.63400  0.25692  1.0000
  C   C6340     1.0  0.72267  0.62410  0.26086  1.0000
  C   C6341     1.0  0.76293  0.58393  0.24923  1.0000
  C   C6342     1.0  0.77873  0.58801  0.26707  1.0000
  C   C6343     1.0  0.75387  0.62147  0.22133  1.0000
  C   C6344     1.0  0.77031  0.60803  0.23622  1.0000
  C   C6345     1.0  0.72184  0.60042  0.28304  1.0000
  C   C6346     1.0  0.72022  0.57190  0.32118  1.0000
  C   C6347     1.0  0.68852  0.60627  0.31711  1.0000
  C   C6348     1.0  0.73092  0.03568  0.36191  1.0000
  C   C6349     1.0  0.75290  0.56155  0.31077  1.0000
  C   C6350     1.0  0.82152  0.59516  0.38913  1.0000
  C   C6351     1.0  0.76692  0.63073  0.32417  1.0000
  C   C6352     1.0  0.81035  0.04544  0.33094  1.0000
  C   C6353     1.0  0.69879  0.58675  0.38989  1.0000
  C   C6354     1.0  0.75049  0.59789  0.40485  1.0000
  C   C6355     1.0  0.72212  0.61790  0.41911  1.0000
  C   C6356     1.0  0.72350  0.61331  0.46412  1.0000
  C   C6357     1.0  0.73392  0.58432  0.44806  1.0000
  C   C6358     1.0  0.80118  0.59509  0.46678  1.0000
  C   C6359     1.0  0.73240  0.62911  0.41944  1.0000
  C   C6360     1.0  0.80175  0.64636  0.45089  1.0000
  C   C6361     1.0  0.69357  0.59907  0.48134  1.0000
  C   C6362     1.0  0.72144  0.61169  0.54188  1.0000
  C   C6363     1.0  0.70356  0.61734  0.53036  1.0000
  C   C6364     1.0  0.71842  0.63969  0.58394  1.0000
  C   C6365     1.0  0.73815  0.60513  0.54075  1.0000
  C   C6366     1.0  0.79007  0.58943  0.56830  1.0000
  C   C6367     1.0  0.73683  0.60054  0.53506  1.0000
  C   C6368     1.0  0.73636  0.63495  0.49413  1.0000
  C   C6369     1.0  0.70217  0.58324  0.59214  1.0000
  C   C6370     1.0  0.68070  0.57885  0.63249  1.0000
  C   C6371     1.0  0.72001  0.62238  0.60584  1.0000
  C   C6372     1.0  0.73792  0.03712  0.64460  1.0000
  C   C6373     1.0  0.75976  0.59999  0.64635  1.0000
  C   C6374     1.0  0.77083  0.60143  0.70409  1.0000
  C   C6375     1.0  0.72822  0.59325  0.57353  1.0000
  C   C6376     1.0  0.78183  0.62977  0.60415  1.0000
  C   C6377     1.0  0.71902  0.57474  0.71391  1.0000
  C   C6378     1.0  0.75517  0.61934  0.73342  1.0000
  C   C6379     1.0  0.70552  0.61589  0.80294  1.0000
  C   C6380     1.0  0.72545  0.64337  0.75700  1.0000
  C   C6381     1.0  0.73641  0.58055  0.77416  1.0000
  C   C6382     1.0  0.78389  0.59450  0.77222  1.0000
  C   C6383     1.0  0.73766  0.61523  0.71164  1.0000
  C   C6384     1.0  0.78187  0.61834  0.69196  1.0000
  C   C6385     1.0  0.62528  0.56594  0.78497  1.0000
  C   C6386     1.0  0.76319  0.60243  0.85976  1.0000
  C   C6387     1.0  0.71309  0.62515  0.86813  1.0000
  C   C6388     1.0  0.74342  0.63900  0.89377  1.0000
  C   C6389     1.0  0.76350  0.59848  0.85429  1.0000
  C   C6390     1.0  0.76887  0.58470  0.84910  1.0000
  C   C6391     1.0  0.75229  0.61371  0.78671  1.0000
  C   C6392     1.0  0.78728  0.62525  0.84962  1.0000
  C   C6393     1.0  0.69681  0.59104  0.86776  1.0000
  C   C6394     1.0  0.72190  0.61843  0.92674  1.0000
  C   C6395     1.0  0.71682  0.61217  0.99321  1.0000
  C   C6396     1.0  0.72868  0.61335  0.96061  1.0000
  C   C6397     1.0  0.72017  0.58139  0.94909  1.0000
  C   C6398     1.0  0.74359  0.58014  0.94534  1.0000
  C   C6399     1.0  0.75183  0.62175  0.88872  1.0000
  C   C6400     1.0  0.75443  0.62845  0.92183  1.0000
  C   C6401     1.0  0.81731  0.04471  0.98133  1.0000
  C   C6402     1.0  0.82084  0.05808  0.01393  1.0000
  C   C6403     1.0  0.84129  0.05482  0.03170  1.0000
  C   C6404     1.0  0.82183  0.10083  0.04807  1.0000
  C   C6405     1.0  0.87512  0.64002  0.01615  1.0000
  C   C6406     1.0  0.88761  0.03574  0.04695  1.0000
  C   C6407     1.0  0.85939  0.06889  0.96664  1.0000
  C   C6408     1.0  0.89938  0.09893  0.01740  1.0000
  C   C6409     1.0  0.78914  0.05299  0.09570  1.0000
  C   C6410     1.0  0.80953  0.04501  0.12308  1.0000
  C   C6411     1.0  0.81282  0.07773  0.12216  1.0000
  C   C6412     1.0  0.85105  0.09798  0.16102  1.0000
  C   C6413     1.0  0.84166  0.04107  0.12531  1.0000
  C   C6414     1.0  0.84793  0.63726  0.19540  1.0000
  C   C6415     1.0  0.84290  0.07185  0.06205  1.0000
  C   C6416     1.0  0.86322  0.08446  0.10895  1.0000
  C   C6417     1.0  0.77136  0.05867  0.23828  1.0000
  C   C6418     1.0  0.77208  0.04895  0.23691  1.0000
  C   C6419     1.0  0.81785  0.06863  0.19665  1.0000
  C   C6420     1.0  0.80655  0.05628  0.26816  1.0000
  C   C6421     1.0  0.85010  0.63011  0.26408  1.0000
  C   C6422     1.0  0.85542  0.06355  0.28277  1.0000
  C   C6423     1.0  0.83315  0.06263  0.21691  1.0000
  C   C6424     1.0  0.87234  0.07760  0.23572  1.0000
  C   C6425     1.0  0.78376  0.04499  0.31882  1.0000
  C   C6426     1.0  0.82973  0.64041  0.31488  1.0000
  C   C6427     1.0  0.78852  0.06419  0.35351  1.0000
  C   C6428     1.0  0.81113  0.06991  0.38428  1.0000
  C   C6429     1.0  0.87397  0.64641  0.31061  1.0000
  C   C6430     1.0  0.90530  0.04101  0.42683  1.0000
  C   C6431     1.0  0.88067  0.07068  0.29581  1.0000
  C   C6432     1.0  0.90877  0.07646  0.30281  1.0000
  C   C6433     1.0  0.80037  0.62994  0.37500  1.0000
  C   C6434     1.0  0.84015  0.03561  0.44407  1.0000
  C   C6435     1.0  0.77845  0.05931  0.46898  1.0000
  C   C6436     1.0  0.82602  0.10084  0.46848  1.0000
  C   C6437     1.0  0.80352  0.06123  0.42553  1.0000
  C   C6438     1.0  0.89206  0.06400  0.44062  1.0000
  C   C6439     1.0  0.86229  0.07516  0.42135  1.0000
  C   C6440     1.0  0.88582  0.08628  0.39884  1.0000
  C   C6441     1.0  0.77859  0.03675  0.51196  1.0000
  C   C6442     1.0  0.80979  0.04652  0.53511  1.0000
  C   C6443     1.0  0.81376  0.64463  0.56010  1.0000
  C   C6444     1.0  0.81971  0.09782  0.57317  1.0000
  C   C6445     1.0  0.80463  0.06240  0.56832  1.0000
  C   C6446     1.0  0.88488  0.05977  0.57818  1.0000
  C   C6447     1.0  0.80997  0.06748  0.48625  1.0000
  C   C6448     1.0  0.84885  0.07919  0.51910  1.0000
  C   C6449     1.0  0.82709  0.03600  0.61664  1.0000
  C   C6450     1.0  0.83831  0.05781  0.60751  1.0000
  C   C6451     1.0  0.81101  0.05959  0.66156  1.0000
  C   C6452     1.0  0.79768  0.07419  0.67785  1.0000
  C   C6453     1.0  0.88915  0.03474  0.64743  1.0000
  C   C6454     1.0  0.87820  0.05480  0.67731  1.0000
  C   C6455     1.0  0.86810  0.05932  0.58918  1.0000
  C   C6456     1.0  0.91723  0.08593  0.62048  1.0000
  C   C6457     1.0  0.75652  0.62468  0.70813  1.0000
  C   C6458     1.0  0.85461  0.05713  0.72524  1.0000
  C   C6459     1.0  0.79276  0.06669  0.75204  1.0000
  C   C6460     1.0  0.79199  0.07050  0.78176  1.0000
  C   C6461     1.0  0.83523  0.63693  0.70358  1.0000
  C   C6462     1.0  0.86315  0.64267  0.77409  1.0000
  C   C6463     1.0  0.81916  0.08030  0.69481  1.0000
  C   C6464     1.0  0.88288  0.07347  0.72256  1.0000
  C   C6465     1.0  0.82587  0.03715  0.83972  1.0000
  C   C6466     1.0  0.84034  0.04123  0.81648  1.0000
  C   C6467     1.0  0.81516  0.04752  0.82288  1.0000
  C   C6468     1.0  0.84044  0.09128  0.87478  1.0000
  C   C6469     1.0  0.81354  0.03965  0.82997  1.0000
  C   C6470     1.0  0.90328  0.07748  0.85724  1.0000
  C   C6471     1.0  0.83526  0.05392  0.80427  1.0000
  C   C6472     1.0  0.85040  0.08825  0.78811  1.0000
  C   C6473     1.0  0.81138  0.64251  0.94685  1.0000
  C   C6474     1.0  0.82845  0.06927  0.93397  1.0000
  C   C6475     1.0  0.79271  0.06811  0.91984  1.0000
  C   C6476     1.0  0.77327  0.07590  0.97264  1.0000
  C   C6477     1.0  0.84121  0.62093  0.93458  1.0000
  C   C6478     1.0  0.87828  0.05999  0.01675  1.0000
  C   C6479     1.0  0.82483  0.06395  0.90418  1.0000
  C   C6480     1.0  0.86073  0.05890  0.89288  1.0000
  C   C6481     1.0  0.78350  0.10361  0.01728  1.0000
  C   C6482     1.0  0.81656  0.10463  0.04032  1.0000
  C   C6483     1.0  0.82084  0.10898  0.03362  1.0000
  C   C6484     1.0  0.83439  0.11784  0.07739  1.0000
  C   C6485     1.0  0.85884  0.08326  0.04679  1.0000
  C   C6486     1.0  0.85602  0.08262  0.08842  1.0000
  C   C6487     1.0  0.80649  0.14102  0.04632  1.0000
  C   C6488     1.0  0.89273  0.13786  0.00245  1.0000
  C   C6489     1.0  0.79435  0.12249  0.13147  1.0000
  C   C6490     1.0  0.81572  0.11968  0.11331  1.0000
  C   C6491     1.0  0.76604  0.14373  0.17073  1.0000
  C   C6492     1.0  0.83461  0.13064  0.15879  1.0000
  C   C6493     1.0  0.86591  0.10310  0.15096  1.0000
  C   C6494     1.0  0.84337  0.10459  0.16710  1.0000
  C   C6495     1.0  0.85403  0.15196  0.13482  1.0000
  C   C6496     1.0  0.88949  0.11256  0.15450  1.0000
  C   C6497     1.0  0.83767  0.07341  0.22354  1.0000
  C   C6498     1.0  0.81424  0.11197  0.22156  1.0000
  C   C6499     1.0  0.77895  0.11981  0.25783  1.0000
  C   C6500     1.0  0.82171  0.13171  0.23818  1.0000
  C   C6501     1.0  0.84935  0.09702  0.25191  1.0000
  C   C6502     1.0  0.85579  0.11910  0.30386  1.0000
  C   C6503     1.0  0.83229  0.14038  0.18009  1.0000
  C   C6504     1.0  0.86876  0.12933  0.25734  1.0000
  C   C6505     1.0  0.84206  0.07921  0.31284  1.0000
  C   C6506     1.0  0.84718  0.09496  0.30613  1.0000
  C   C6507     1.0  0.80138  0.13404  0.35926  1.0000
  C   C6508     1.0  0.80481  0.14238  0.33445  1.0000
  C   C6509     1.0  0.85234  0.12483  0.31668  1.0000
  C   C6510     1.0  0.86639  0.06844  0.35682  1.0000
  C   C6511     1.0  0.80836  0.12366  0.31596  1.0000
  C   C6512     1.0  0.87306  0.15936  0.34055  1.0000
  C   C6513     1.0  0.81213  0.09672  0.41336  1.0000
  C   C6514     1.0  0.82019  0.09457  0.38747  1.0000
  C   C6515     1.0  0.81555  0.13252  0.47924  1.0000
  C   C6516     1.0  0.82719  0.16094  0.51427  1.0000
  C   C6517     1.0  0.88282  0.08748  0.46096  1.0000
  C   C6518     1.0  0.88862  0.12056  0.44508  1.0000
  C   C6519     1.0  0.87021  0.12278  0.41258  1.0000
  C   C6520     1.0  0.86631  0.12318  0.41700  1.0000
  C   C6521     1.0  0.82450  0.06537  0.52542  1.0000
  C   C6522     1.0  0.85664  0.12340  0.54688  1.0000
  C   C6523     1.0  0.75869  0.12606  0.54280  1.0000
  C   C6524     1.0  0.83170  0.13880  0.57203  1.0000
  C   C6525     1.0  0.87698  0.09489  0.53360  1.0000
  C   C6526     1.0  0.89389  0.09934  0.56588  1.0000
  C   C6527     1.0  0.83403  0.11316  0.53466  1.0000
  C   C6528     1.0  0.86877  0.13803  0.51003  1.0000
  C   C6529     1.0  0.75158  0.09555  0.58790  1.0000
  C   C6530     1.0  0.88171  0.08628  0.66228  1.0000
  C   C6531     1.0  0.78251  0.12948  0.63124  1.0000
  C   C6532     1.0  0.83166  0.14058  0.65740  1.0000
  C   C6533     1.0  0.84429  0.11092  0.64821  1.0000
  C   C6534     1.0  0.84904  0.11498  0.73584  1.0000
  C   C6535     1.0  0.84320  0.12624  0.59961  1.0000
  C   C6536     1.0  0.89024  0.13890  0.61310  1.0000
  C   C6537     1.0  0.76418  0.10051  0.67741  1.0000
  C   C6538     1.0  0.83086  0.09478  0.73584  1.0000
  C   C6539     1.0  0.81765  0.11651  0.77895  1.0000
  C   C6540     1.0  0.83222  0.11963  0.79655  1.0000
  C   C6541     1.0  0.82131  0.07399  0.75444  1.0000
  C   C6542     1.0  0.85374  0.10907  0.78364  1.0000
  C   C6543     1.0  0.85129  0.11146  0.67425  1.0000
  C   C6544     1.0  0.85175  0.16138  0.74469  1.0000
  C   C6545     1.0  0.79135  0.09835  0.79223  1.0000
  C   C6546     1.0  0.82412  0.11733  0.84309  1.0000
  C   C6547     1.0  0.86427  0.12483  0.83771  1.0000
  C   C6548     1.0  0.80496  0.12764  0.85361  1.0000
  C   C6549     1.0  0.85364  0.10215  0.83004  1.0000
  C   C6550     1.0  0.88557  0.10266  0.87514  1.0000
  C   C6551     1.0  0.85911  0.12638  0.79740  1.0000
  C   C6552     1.0  0.87676  0.16676  0.81733  1.0000
  C   C6553     1.0  0.77362  0.09160  0.89120  1.0000
  C   C6554     1.0  0.84752  0.09709  0.91036  1.0000
  C   C6555     1.0  0.80534  0.11587  0.98327  1.0000
  C   C6556     1.0  0.86392  0.16269  0.97271  1.0000
  C   C6557     1.0  0.84092  0.08904  0.96231  1.0000
  C   C6558     1.0  0.88681  0.10760  0.96118  1.0000
  C   C6559     1.0  0.80849  0.12889  0.90639  1.0000
  C   C6560     1.0  0.87498  0.15443  0.91845  1.0000
  C   C6561     1.0  0.84738  0.14377  0.02653  1.0000
  C   C6562     1.0  0.81367  0.16080  0.03865  1.0000
  C   C6563     1.0  0.79020  0.19922  0.03042  1.0000
  C   C6564     1.0  0.83148  0.18729  0.07240  1.0000
  C   C6565     1.0  0.85855  0.13876  0.04226  1.0000
  C   C6566     1.0  0.84270  0.17165  0.07773  1.0000
  C   C6567     1.0  0.82986  0.18226  0.02832  1.0000
  C   C6568     1.0  0.87087  0.19604  0.01640  1.0000
  C   C6569     1.0  0.78504  0.15035  0.07930  1.0000
  C   C6570     1.0  0.85949  0.15244  0.11355  1.0000
  C   C6571     1.0  0.74292  0.16392  0.15711  1.0000
  C   C6572     1.0  0.86123  0.22292  0.14190  1.0000
  C   C6573     1.0  0.87737  0.15895  0.11419  1.0000
  C   C6574     1.0  0.86658  0.17214  0.20763  1.0000
  C   C6575     1.0  0.81962  0.19633  0.12667  1.0000
  C   C6576     1.0  0.88627  0.20265  0.15193  1.0000
  C   C6577     1.0  0.77517  0.15105  0.18141  1.0000
  C   C6578     1.0  0.84747  0.15651  0.20945  1.0000
  C   C6579     1.0  0.78111  0.17788  0.22612  1.0000
  C   C6580     1.0  0.83022  0.22872  0.29653  1.0000
  C   C6581     1.0  0.81197  0.17655  0.29092  1.0000
  C   C6582     1.0  0.87789  0.16280  0.26793  1.0000
  C   C6583     1.0  0.86531  0.19869  0.21902  1.0000
  C   C6584     1.0  0.85221  0.21121  0.24588  1.0000
  C   C6585     1.0  0.82102  0.14454  0.26069  1.0000
  C   C6586     1.0  0.79380  0.18075  0.30864  1.0000
  C   C6587     1.0  0.82213  0.19388  0.35322  1.0000
  C   C6588     1.0  0.83226  0.19834  0.39367  1.0000
  C   C6589     1.0  0.84030  0.14752  0.34205  1.0000
  C   C6590     1.0  0.90794  0.17269  0.39086  1.0000
  C   C6591     1.0  0.85856  0.17019  0.28795  1.0000
  C   C6592     1.0  0.87435  0.19364  0.30656  1.0000
  C   C6593     1.0  0.79455  0.16325  0.38361  1.0000
  C   C6594     1.0  0.86917  0.15605  0.41009  1.0000
  C   C6595     1.0  0.80218  0.18502  0.42753  1.0000
  C   C6596     1.0  0.79400  0.19137  0.49731  1.0000
  C   C6597     1.0  0.84424  0.16136  0.45669  1.0000
  C   C6598     1.0  0.84579  0.17436  0.48327  1.0000
  C   C6599     1.0  0.83647  0.20402  0.37693  1.0000
  C   C6600     1.0  0.90322  0.22011  0.39743  1.0000
  C   C6601     1.0  0.80348  0.16882  0.50189  1.0000
  C   C6602     1.0  0.84656  0.18322  0.55678  1.0000
  C   C6603     1.0  0.79603  0.19525  0.50919  1.0000
  C   C6604     1.0  0.80746  0.19942  0.58939  1.0000
  C   C6605     1.0  0.83287  0.12874  0.54768  1.0000
  C   C6606     1.0  0.90015  0.17288  0.54285  1.0000
  C   C6607     1.0  0.83309  0.16738  0.50253  1.0000
  C   C6608     1.0  0.87589  0.22249  0.56270  1.0000
  C   C6609     1.0  0.76836  0.15791  0.57405  1.0000
  C   C6610     1.0  0.82516  0.16683  0.61402  1.0000
  C   C6611     1.0  0.77146  0.22088  0.64165  1.0000
  C   C6612     1.0  0.80496  0.19836  0.65011  1.0000
  C   C6613     1.0  0.82717  0.16247  0.62780  1.0000
  C   C6614     1.0  0.85040  0.18175  0.69834  1.0000
  C   C6615     1.0  0.84511  0.18747  0.59175  1.0000
  C   C6616     1.0  0.87941  0.18298  0.59174  1.0000
  C   C6617     1.0  0.78697  0.14399  0.70624  1.0000
  C   C6618     1.0  0.83691  0.19209  0.74586  1.0000
  C   C6619     1.0  0.79867  0.20451  0.71608  1.0000
  C   C6620     1.0  0.82130  0.20055  0.80941  1.0000
  C   C6621     1.0  0.87798  0.16136  0.72090  1.0000
  C   C6622     1.0  0.89227  0.17617  0.77850  1.0000
  C   C6623     1.0  0.83313  0.19141  0.68614  1.0000
  C   C6624     1.0  0.87635  0.18277  0.74361  1.0000
  C   C6625     1.0  0.85001  0.14931  0.77671  1.0000
  C   C6626     1.0  0.78746  0.18845  0.81032  1.0000
  C   C6627     1.0  0.79076  0.18740  0.86392  1.0000
  C   C6628     1.0  0.81510  0.20769  0.86323  1.0000
  C   C6629     1.0  0.85397  0.16059  0.87331  1.0000
  C   C6630     1.0  0.90007  0.17752  0.88828  1.0000
  C   C6631     1.0  0.84274  0.20391  0.79416  1.0000
  C   C6632     1.0  0.85752  0.21553  0.84986  1.0000
  C   C6633     1.0  0.82124  0.14075  0.90083  1.0000
  C   C6634     1.0  0.83062  0.17751  0.90096  1.0000
  C   C6635     1.0  0.77695  0.17737  0.91521  1.0000
  C   C6636     1.0  0.84740  0.18580  0.95978  1.0000
  C   C6637     1.0  0.89502  0.12408  0.95539  1.0000
  C   C6638     1.0  0.83762  0.16132  0.95726  1.0000
  C   C6639     1.0  0.84005  0.16707  0.87829  1.0000
  C   C6640     1.0  0.90249  0.18757  0.93355  1.0000
  C   C6641     1.0  0.79617  0.20958  0.00031  1.0000
  C   C6642     1.0  0.80760  0.22289  0.08192  1.0000
  C   C6643     1.0  0.81850  0.25289  0.06970  1.0000
  C   C6644     1.0  0.83127  0.24918  0.04913  1.0000
  C   C6645     1.0  0.86520  0.20486  0.02178  1.0000
  C   C6646     1.0  0.85034  0.22518  0.05899  1.0000
  C   C6647     1.0  0.85625  0.25001  0.03731  1.0000
  C   C6648     1.0  0.83627  0.28363  0.02916  1.0000
  C   C6649     1.0  0.78434  0.21606  0.09355  1.0000
  C   C6650     1.0  0.78329  0.23120  0.15668  1.0000
  C   C6651     1.0  0.79831  0.25013  0.13928  1.0000
  C   C6652     1.0  0.82283  0.26788  0.17053  1.0000
  C   C6653     1.0  0.85132  0.21821  0.17985  1.0000
  C   C6654     1.0  0.89225  0.23649  0.16378  1.0000
  C   C6655     1.0  0.86516  0.26857  0.10370  1.0000
  C   C6656     1.0  0.92620  0.27134  0.12075  1.0000
  C   C6657     1.0  0.80645  0.19793  0.20328  1.0000
  C   C6658     1.0  0.80778  0.24511  0.23569  1.0000
  C   C6659     1.0  0.77355  0.23597  0.26592  1.0000
  C   C6660     1.0  0.81965  0.26572  0.28535  1.0000
  C   C6661     1.0  0.86308  0.23352  0.26050  1.0000
  C   C6662     1.0  0.86248  0.23801  0.26231  1.0000
  C   C6663     1.0  0.87056  0.26518  0.17531  1.0000
  C   C6664     1.0  0.87940  0.27372  0.23240  1.0000
  C   C6665     1.0  0.73414  0.21783  0.29776  1.0000
  C   C6666     1.0  0.82408  0.23511  0.32022  1.0000
  C   C6667     1.0  0.79369  0.25427  0.28147  1.0000
  C   C6668     1.0  0.81535  0.28603  0.35867  1.0000
  C   C6669     1.0  0.87174  0.21197  0.36920  1.0000
  C   C6670     1.0  0.86585  0.22209  0.34671  1.0000
  C   C6671     1.0  0.89364  0.23615  0.30146  1.0000
  C   C6672     1.0  0.85982  0.26422  0.32600  1.0000
  C   C6673     1.0  0.77070  0.19698  0.41232  1.0000
  C   C6674     1.0  0.80595  0.23264  0.45772  1.0000
  C   C6675     1.0  0.81621  0.27010  0.44312  1.0000
  C   C6676     1.0  0.81093  0.25178  0.47625  1.0000
  C   C6677     1.0  0.84901  0.22255  0.44247  1.0000
  C   C6678     1.0  0.88112  0.22079  0.45834  1.0000
  C   C6679     1.0  0.83899  0.24446  0.37485  1.0000
  C   C6680     1.0  0.89929  0.26174  0.43096  1.0000
  C   C6681     1.0  0.81402  0.19353  0.46351  1.0000
  C   C6682     1.0  0.86412  0.23933  0.50017  1.0000
  C   C6683     1.0  0.79684  0.25172  0.53736  1.0000
  C   C6684     1.0  0.77798  0.27429  0.57585  1.0000
  C   C6685     1.0  0.82597  0.21532  0.56515  1.0000
  C   C6686     1.0  0.87475  0.24259  0.58888  1.0000
  C   C6687     1.0  0.84811  0.25823  0.50543  1.0000
  C   C6688     1.0  0.83010  0.27622  0.52166  1.0000
  C   C6689     1.0  0.81391  0.21895  0.61749  1.0000
  C   C6690     1.0  0.86028  0.23020  0.62289  1.0000
  C   C6691     1.0  0.77317  0.25524  0.65792  1.0000
  C   C6692     1.0  0.80369  0.26556  0.66586  1.0000
  C   C6693     1.0  0.83208  0.21948  0.63416  1.0000
  C   C6694     1.0  0.86911  0.24516  0.67216  1.0000
  C   C6695     1.0  0.85093  0.24750  0.63803  1.0000
  C   C6696     1.0  0.86484  0.24998  0.62831  1.0000
  C   C6697     1.0  0.81910  0.20036  0.69191  1.0000
  C   C6698     1.0  0.82348  0.22867  0.73797  1.0000
  C   C6699     1.0  0.79909  0.26464  0.74068  1.0000
  C   C6700     1.0  0.83256  0.26087  0.73856  1.0000
  C   C6701     1.0  0.85665  0.23478  0.74687  1.0000
  C   C6702     1.0  0.86273  0.23285  0.80120  1.0000
  C   C6703     1.0  0.86136  0.24287  0.68128  1.0000
  C   C6704     1.0  0.84345  0.25867  0.75366  1.0000
  C   C6705     1.0  0.80498  0.24388  0.81944  1.0000
  C   C6706     1.0  0.80767  0.24472  0.82537  1.0000
  C   C6707     1.0  0.76326  0.25112  0.81323  1.0000
  C   C6708     1.0  0.85233  0.27620  0.87145  1.0000
  C   C6709     1.0  0.81451  0.21587  0.82391  1.0000
  C   C6710     1.0  0.84302  0.23436  0.87040  1.0000
  C   C6711     1.0  0.85166  0.27261  0.78212  1.0000
  C   C6712     1.0  0.85244  0.24997  0.78469  1.0000
  C   C6713     1.0  0.81507  0.20208  0.91390  1.0000
  C   C6714     1.0  0.82595  0.24971  0.94124  1.0000
  C   C6715     1.0  0.81911  0.27515  0.96078  1.0000
  C   C6716     1.0  0.81215  0.25303  0.01394  1.0000
  C   C6717     1.0  0.88179  0.20862  0.96238  1.0000
  C   C6718     1.0  0.87449  0.23868  0.95577  1.0000
  C   C6719     1.0  0.85401  0.23152  0.90163  1.0000
  C   C6720     1.0  0.89026  0.25777  0.88401  1.0000
  C   C6721     1.0  0.77159  0.27435  0.00719  1.0000
  C   C6722     1.0  0.83183  0.28599  0.02304  1.0000
  C   C6723     1.0  0.80979  0.32400  0.03644  1.0000
  C   C6724     1.0  0.83471  0.31076  0.07432  1.0000
  C   C6725     1.0  0.87599  0.27389  0.04996  1.0000
  C   C6726     1.0  0.84534  0.29022  0.09803  1.0000
  C   C6727     1.0  0.82841  0.29694  0.02283  1.0000
  C   C6728     1.0  0.85650  0.33051  0.00883  1.0000
  C   C6729     1.0  0.79636  0.27025  0.09939  1.0000
  C   C6730     1.0  0.83144  0.28305  0.14602  1.0000
  C   C6731     1.0  0.79618  0.29691  0.14054  1.0000
  C   C6732     1.0  0.82134  0.31770  0.14857  1.0000
  C   C6733     1.0  0.87067  0.28409  0.15018  1.0000
  C   C6734     1.0  0.89000  0.30792  0.17569  1.0000
  C   C6735     1.0  0.89290  0.34036  0.11393  1.0000
  C   C6736     1.0  0.86074  0.32552  0.13584  1.0000
  C   C6737     1.0  0.81864  0.28272  0.22631  1.0000
  C   C6738     1.0  0.86419  0.27993  0.22512  1.0000
  C   C6739     1.0  0.84342  0.31515  0.24670  1.0000
  C   C6740     1.0  0.82682  0.32734  0.29997  1.0000
  C   C6741     1.0  0.85357  0.26144  0.23920  1.0000
  C   C6742     1.0  0.86249  0.30071  0.30445  1.0000
  C   C6743     1.0  0.83060  0.32193  0.18923  1.0000
  C   C6744     1.0  0.86746  0.33929  0.22634  1.0000
  C   C6745     1.0  0.84151  0.27908  0.32266  1.0000
  C   C6746     1.0  0.80154  0.29448  0.34363  1.0000
  C   C6747     1.0  0.80070  0.30938  0.34796  1.0000
  C   C6748     1.0  0.85501  0.30624  0.37525  1.0000
  C   C6749     1.0  0.86416  0.28789  0.32259  1.0000
  C   C6750     1.0  0.84518  0.26339  0.38666  1.0000
  C   C6751     1.0  0.85873  0.29817  0.29154  1.0000
  C   C6752     1.0  0.87108  0.33576  0.32039  1.0000
  C   C6753     1.0  0.79796  0.28125  0.41937  1.0000
  C   C6754     1.0  0.84300  0.30481  0.41273  1.0000
  C   C6755     1.0  0.79045  0.32759  0.41447  1.0000
  C   C6756     1.0  0.87498  0.30727  0.45796  1.0000
  C   C6757     1.0  0.83073  0.27142  0.44686  1.0000
  C   C6758     1.0  0.85381  0.29993  0.47738  1.0000
  C   C6759     1.0  0.86705  0.30363  0.40362  1.0000
  C   C6760     1.0  0.87470  0.32258  0.37000  1.0000
  C   C6761     1.0  0.80398  0.27723  0.49968  1.0000
  C   C6762     1.0  0.83417  0.31551  0.52340  1.0000
  C   C6763     1.0  0.80148  0.31448  0.56135  1.0000
  C   C6764     1.0  0.82016  0.31844  0.59343  1.0000
  C   C6765     1.0  0.84895  0.26121  0.56383  1.0000
  C   C6766     1.0  0.89086  0.28536  0.57069  1.0000
  C   C6767     1.0  0.84572  0.31617  0.51498  1.0000
  C   C6768     1.0  0.84848  0.31624  0.53331  1.0000
  C   C6769     1.0  0.78761  0.28602  0.57407  1.0000
  C   C6770     1.0  0.84914  0.30093  0.59018  1.0000
  C   C6771     1.0  0.80405  0.29075  0.64152  1.0000
  C   C6772     1.0  0.81826  0.34026  0.68426  1.0000
  C   C6773     1.0  0.78653  0.27818  0.64107  1.0000
  C   C6774     1.0  0.90446  0.29770  0.67487  1.0000
  C   C6775     1.0  0.82539  0.29632  0.60925  1.0000
  C   C6776     1.0  0.84894  0.33146  0.62849  1.0000
  C   C6777     1.0  0.81955  0.27340  0.71820  1.0000
  C   C6778     1.0  0.82899  0.28433  0.68229  1.0000
  C   C6779     1.0  0.85988  0.30043  0.74553  1.0000
  C   C6780     1.0  0.80285  0.35285  0.74195  1.0000
  C   C6781     1.0  0.84086  0.27208  0.70855  1.0000
  C   C6782     1.0  0.86960  0.27661  0.76440  1.0000
  C   C6783     1.0  0.86299  0.30427  0.73056  1.0000
  C   C6784     1.0  0.87402  0.30721  0.76484  1.0000
  C   C6785     1.0  0.78310  0.29906  0.79571  1.0000
  C   C6786     1.0  0.85349  0.28829  0.81735  1.0000
  C   C6787     1.0  0.79450  0.30684  0.87974  1.0000
  C   C6788     1.0  0.76380  0.34658  0.88400  1.0000
  C   C6789     1.0  0.84315  0.26934  0.85027  1.0000
  C   C6790     1.0  0.87872  0.29664  0.85950  1.0000
  C   C6791     1.0  0.87170  0.31485  0.80284  1.0000
  C   C6792     1.0  0.84908  0.30503  0.82724  1.0000
  C   C6793     1.0  0.82188  0.29746  0.91452  1.0000
  C   C6794     1.0  0.84409  0.29130  0.91621  1.0000
  C   C6795     1.0  0.80588  0.31677  0.92929  1.0000
  C   C6796     1.0  0.83052  0.30700  0.96321  1.0000
  C   C6797     1.0  0.85533  0.29008  0.93219  1.0000
  C   C6798     1.0  0.91549  0.26966  0.96378  1.0000
  C   C6799     1.0  0.86313  0.31448  0.88714  1.0000
  C   C6800     1.0  0.84782  0.30885  0.92607  1.0000
  C   C6801     1.0  0.79569  0.35246  0.01672  1.0000
  C   C6802     1.0  0.83098  0.36517  0.01670  1.0000
  C   C6803     1.0  0.84384  0.38041  0.08590  1.0000
  C   C6804     1.0  0.80651  0.35434  0.07200  1.0000
  C   C6805     1.0  0.85551  0.34404  0.01245  1.0000
  C   C6806     1.0  0.85512  0.34719  0.04673  1.0000
  C   C6807     1.0  0.86380  0.38418  0.96433  1.0000
  C   C6808     1.0  0.87254  0.38380  0.04782  1.0000
  C   C6809     1.0  0.77190  0.36313  0.11481  1.0000
  C   C6810     1.0  0.88937  0.32880  0.18181  1.0000
  C   C6811     1.0  0.81683  0.37021  0.13693  1.0000
  C   C6812     1.0  0.85217  0.37641  0.20395  1.0000
  C   C6813     1.0  0.85556  0.33463  0.19709  1.0000
  C   C6814     1.0  0.84676  0.37248  0.12132  1.0000
  C   C6815     1.0  0.88317  0.37369  0.05638  1.0000
  C   C6816     1.0  0.87027  0.37032  0.11419  1.0000
  C   C6817     1.0  0.79921  0.33602  0.17154  1.0000
  C   C6818     1.0  0.85258  0.33493  0.22386  1.0000
  C   C6819     1.0  0.77035  0.35910  0.26563  1.0000
  C   C6820     1.0  0.86318  0.36937  0.27833  1.0000
  C   C6821     1.0  0.85222  0.35754  0.24097  1.0000
  C   C6822     1.0  0.87285  0.35707  0.25556  1.0000
  C   C6823     1.0  0.84947  0.36018  0.18351  1.0000
  C   C6824     1.0  0.87639  0.38424  0.27205  1.0000
  C   C6825     1.0  0.78870  0.32010  0.32817  1.0000
  C   C6826     1.0  0.83820  0.34418  0.35650  1.0000
  C   C6827     1.0  0.78245  0.37139  0.35003  1.0000
  C   C6828     1.0  0.83814  0.38266  0.38792  1.0000
  C   C6829     1.0  0.87261  0.32205  0.34041  1.0000
  C   C6830     1.0  0.92022  0.37921  0.39252  1.0000
  C   C6831     1.0  0.89298  0.38404  0.35351  1.0000
  C   C6832     1.0  0.89331  0.39801  0.33269  1.0000
  C   C6833     1.0  0.77310  0.33498  0.38002  1.0000
  C   C6834     1.0  0.81674  0.33403  0.41864  1.0000
  C   C6835     1.0  0.83079  0.36857  0.44398  1.0000
  C   C6836     1.0  0.87001  0.37293  0.49960  1.0000
  C   C6837     1.0  0.86674  0.33487  0.44879  1.0000
  C   C6838     1.0  0.88087  0.35535  0.46077  1.0000
  C   C6839     1.0  0.83591  0.37189  0.38546  1.0000
  C   C6840     1.0  0.86578  0.38469  0.42320  1.0000
  C   C6841     1.0  0.79974  0.35389  0.51037  1.0000
  C   C6842     1.0  0.83101  0.36325  0.49095  1.0000
  C   C6843     1.0  0.79262  0.35887  0.48860  1.0000
  C   C6844     1.0  0.80662  0.39851  0.58471  1.0000
  C   C6845     1.0  0.87525  0.31623  0.56970  1.0000
  C   C6846     1.0  0.87985  0.36454  0.64054  1.0000
  C   C6847     1.0  0.87507  0.35256  0.49691  1.0000
  C   C6848     1.0  0.89087  0.38548  0.50108  1.0000
  C   C6849     1.0  0.81859  0.37258  0.62960  1.0000
  C   C6850     1.0  0.84263  0.34673  0.63320  1.0000
  C   C6851     1.0  0.79722  0.38834  0.65852  1.0000
  C   C6852     1.0  0.82031  0.38099  0.64590  1.0000
  C   C6853     1.0  0.82423  0.34686  0.67398  1.0000
  C   C6854     1.0  0.88388  0.35078  0.69010  1.0000
  C   C6855     1.0  0.88177  0.37409  0.58939  1.0000
  C   C6856     1.0  0.87135  0.35770  0.61636  1.0000
  C   C6857     1.0  0.83216  0.36438  0.68841  1.0000
  C   C6858     1.0  0.83438  0.35448  0.68278  1.0000
  C   C6859     1.0  0.82227  0.37205  0.76626  1.0000
  C   C6860     1.0  0.81835  0.39431  0.75555  1.0000
  C   C6861     1.0  0.85016  0.34188  0.77003  1.0000
  C   C6862     1.0  0.86293  0.37433  0.78539  1.0000
  C   C6863     1.0  0.84249  0.35897  0.70421  1.0000
  C   C6864     1.0  0.84928  0.38441  0.69574  1.0000
  C   C6865     1.0  0.77431  0.35647  0.79344  1.0000
  C   C6866     1.0  0.79473  0.35628  0.83050  1.0000
  C   C6867     1.0  0.82279  0.37063  0.83531  1.0000
  C   C6868     1.0  0.83922  0.38647  0.85282  1.0000
  C   C6869     1.0  0.90468  0.34255  0.81894  1.0000
  C   C6870     1.0  0.88977  0.33572  0.85207  1.0000
  C   C6871     1.0  0.86204  0.36395  0.84655  1.0000
  C   C6872     1.0  0.89383  0.39497  0.80227  1.0000
  C   C6873     1.0  0.79854  0.35782  0.93886  1.0000
  C   C6874     1.0  0.83694  0.35321  0.89820  1.0000
  C   C6875     1.0  0.82038  0.38210  0.96661  1.0000
  C   C6876     1.0  0.85132  0.35699  0.97275  1.0000
  C   C6877     1.0  0.88400  0.35299  0.96272  1.0000
  C   C6878     1.0  0.88338  0.33578  0.99208  1.0000
  C   C6879     1.0  0.88113  0.38518  0.89377  1.0000
  C   C6880     1.0  0.87351  0.39429  0.89025  1.0000
  C   C6881     1.0  0.79493  0.41182  0.00374  1.0000
  C   C6882     1.0  0.84677  0.40309  0.06576  1.0000
  C   C6883     1.0  0.76330  0.43796  0.03739  1.0000
  C   C6884     1.0  0.83199  0.44639  0.05532  1.0000
  C   C6885     1.0  0.85291  0.38249  0.05848  1.0000
  C   C6886     1.0  0.89237  0.45130  0.05929  1.0000
  C   C6887     1.0  0.86111  0.43797  0.98394  1.0000
  C   C6888     1.0  0.85729  0.44636  0.02277  1.0000
  C   C6889     1.0  0.81632  0.38543  0.12858  1.0000
  C   C6890     1.0  0.82912  0.41741  0.10860  1.0000
  C   C6891     1.0  0.84016  0.45112  0.13576  1.0000
  C   C6892     1.0  0.81192  0.45543  0.19172  1.0000
  C   C6893     1.0  0.85789  0.38777  0.20809  1.0000
  C   C6894     1.0  0.86207  0.41215  0.18682  1.0000
  C   C6895     1.0  0.85568  0.42878  0.11945  1.0000
  C   C6896     1.0  0.90170  0.45042  0.12526  1.0000
  C   C6897     1.0  0.81075  0.39997  0.21140  1.0000
  C   C6898     1.0  0.80949  0.43092  0.25142  1.0000
  C   C6899     1.0  0.80486  0.42795  0.26678  1.0000
  C   C6900     1.0  0.81939  0.46119  0.31604  1.0000
  C   C6901     1.0  0.83938  0.40386  0.23971  1.0000
  C   C6902     1.0  0.83601  0.42697  0.27628  1.0000
  C   C6903     1.0  0.81982  0.42476  0.17863  1.0000
  C   C6904     1.0  0.89993  0.43753  0.23482  1.0000
  C   C6905     1.0  0.80534  0.41781  0.24980  1.0000
  C   C6906     1.0  0.83217  0.40193  0.35163  1.0000
  C   C6907     1.0  0.82504  0.42030  0.35151  1.0000
  C   C6908     1.0  0.82284  0.46713  0.36214  1.0000
  C   C6909     1.0  0.84325  0.39392  0.34845  1.0000
  C   C6910     1.0  0.90737  0.41213  0.38238  1.0000
  C   C6911     1.0  0.87405  0.41258  0.33334  1.0000
  C   C6912     1.0  0.89015  0.45858  0.30346  1.0000
  C   C6913     1.0  0.85773  0.43530  0.37936  1.0000
  C   C6914     1.0  0.91433  0.39693  0.39784  1.0000
  C   C6915     1.0  0.82592  0.42681  0.45433  1.0000
  C   C6916     1.0  0.80385  0.46468  0.47275  1.0000
  C   C6917     1.0  0.81293  0.41182  0.45735  1.0000
  C   C6918     1.0  0.84492  0.41630  0.46612  1.0000
  C   C6919     1.0  0.86555  0.42600  0.41460  1.0000
  C   C6920     1.0  0.84045  0.46237  0.42934  1.0000
  C   C6921     1.0  0.81276  0.40478  0.50503  1.0000
  C   C6922     1.0  0.83411  0.41005  0.51828  1.0000
  C   C6923     1.0  0.79700  0.41796  0.59363  1.0000
  C   C6924     1.0  0.84779  0.44601  0.56376  1.0000
  C   C6925     1.0  0.84602  0.40176  0.55746  1.0000
  C   C6926     1.0  0.85023  0.41706  0.56923  1.0000
  C   C6927     1.0  0.82430  0.41849  0.50684  1.0000
  C   C6928     1.0  0.88252  0.43688  0.51681  1.0000
  C   C6929     1.0  0.78635  0.41074  0.60954  1.0000
  C   C6930     1.0  0.82452  0.40932  0.62839  1.0000
  C   C6931     1.0  0.76599  0.42446  0.61342  1.0000
  C   C6932     1.0  0.82558  0.44918  0.64591  1.0000
  C   C6933     1.0  0.85268  0.40297  0.67761  1.0000
  C   C6934     1.0  0.84605  0.43184  0.68651  1.0000
  C   C6935     1.0  0.85166  0.43370  0.60766  1.0000
  C   C6936     1.0  0.87372  0.46303  0.62508  1.0000
  C   C6937     1.0  0.81043  0.40131  0.67932  1.0000
  C   C6938     1.0  0.81447  0.41715  0.72038  1.0000
  C   C6939     1.0  0.80649  0.40245  0.75187  1.0000
  C   C6940     1.0  0.83332  0.45620  0.84171  1.0000
  C   C6941     1.0  0.86709  0.39604  0.78380  1.0000
  C   C6942     1.0  0.85801  0.40058  0.78741  1.0000
  C   C6943     1.0  0.84699  0.44417  0.72485  1.0000
  C   C6944     1.0  0.89614  0.42793  0.72183  1.0000
  C   C6945     1.0  0.78369  0.39616  0.78164  1.0000
  C   C6946     1.0  0.81926  0.40039  0.83643  1.0000
  C   C6947     1.0  0.78734  0.42483  0.84442  1.0000
  C   C6948     1.0  0.84164  0.42429  0.87388  1.0000
  C   C6949     1.0  0.86429  0.42590  0.85653  1.0000
  C   C6950     1.0  0.88065  0.40860  0.87285  1.0000
  C   C6951     1.0  0.84757  0.43368  0.82152  1.0000
  C   C6952     1.0  0.83874  0.44849  0.81505  1.0000
  C   C6953     1.0  0.77629  0.41536  0.93191  1.0000
  C   C6954     1.0  0.84035  0.42333  0.94326  1.0000
  C   C6955     1.0  0.79327  0.44325  0.98168  1.0000
  C   C6956     1.0  0.84152  0.44451  0.02881  1.0000
  C   C6957     1.0  0.86510  0.38287  0.92234  1.0000
  C   C6958     1.0  0.89585  0.43197  0.99476  1.0000
  C   C6959     1.0  0.82579  0.43526  0.92217  1.0000
  C   C6960     1.0  0.88665  0.46583  0.94361  1.0000
  C   C6961     1.0  0.79456  0.46607  0.00935  1.0000
  C   C6962     1.0  0.84395  0.46621  0.05075  1.0000
  C   C6963     1.0  0.79259  0.47819  0.04374  1.0000
  C   C6964     1.0  0.82787  0.49926  0.08373  1.0000
  C   C6965     1.0  0.84194  0.47040  0.00543  1.0000
  C   C6966     1.0  0.87073  0.46762  0.03525  1.0000
  C   C6967     1.0  0.84347  0.49186  0.98362  1.0000
  C   C6968     1.0  0.89564  0.49986  0.02620  1.0000
  C   C6969     1.0  0.77495  0.47343  0.11245  1.0000
  C   C6970     1.0  0.83417  0.48288  0.14925  1.0000
  C   C6971     1.0  0.79957  0.48457  0.13219  1.0000
  C   C6972     1.0  0.83776  0.50804  0.19076  1.0000
  C   C6973     1.0  0.88204  0.46738  0.13378  1.0000
  C   C6974     1.0  0.84548  0.49613  0.20354  1.0000
  C   C6975     1.0  0.81271  0.49032  0.12955  1.0000
  C   C6976     1.0  0.88190  0.51980  0.11474  1.0000
  C   C6977     1.0  0.84083  0.45911  0.23527  1.0000
  C   C6978     1.0  0.81028  0.46308  0.26013  1.0000
  C   C6979     1.0  0.82860  0.51680  0.25213  1.0000
  C   C6980     1.0  0.84599  0.50081  0.29457  1.0000
  C   C6981     1.0  0.86738  0.45696  0.23144  1.0000
  C   C6982     1.0  0.85551  0.49589  0.26228  1.0000
  C   C6983     1.0  0.83686  0.46195  0.15010  1.0000
  C   C6984     1.0  0.88901  0.48683  0.23704  1.0000
  C   C6985     1.0  0.81394  0.45037  0.31310  1.0000
  C   C6986     1.0  0.83874  0.49495  0.34353  1.0000
  C   C6987     1.0  0.82297  0.49810  0.31919  1.0000
  C   C6988     1.0  0.85394  0.51143  0.35779  1.0000
  C   C6989     1.0  0.83505  0.47747  0.34487  1.0000
  C   C6990     1.0  0.83933  0.46823  0.37287  1.0000
  C   C6991     1.0  0.87472  0.49076  0.28572  1.0000
  C   C6992     1.0  0.89719  0.51400  0.33971  1.0000
  C   C6993     1.0  0.83868  0.47034  0.38256  1.0000
  C   C6994     1.0  0.79361  0.49860  0.43433  1.0000
  C   C6995     1.0  0.81089  0.49207  0.45978  1.0000
  C   C6996     1.0  0.81813  0.52731  0.44136  1.0000
  C   C6997     1.0  0.86107  0.49281  0.45050  1.0000
  C   C6998     1.0  0.92288  0.47105  0.48133  1.0000
  C   C6999     1.0  0.84799  0.48538  0.43904  1.0000
  C   C7000     1.0  0.88112  0.47982  0.44774  1.0000
  C   C7001     1.0  0.82824  0.42243  0.52946  1.0000
  C   C7002     1.0  0.81234  0.46103  0.55146  1.0000
  C   C7003     1.0  0.79391  0.47685  0.56509  1.0000
  C   C7004     1.0  0.84782  0.51356  0.55169  1.0000
  C   C7005     1.0  0.82158  0.50008  0.56581  1.0000
  C   C7006     1.0  0.85165  0.48636  0.55680  1.0000
  C   C7007     1.0  0.84750  0.48520  0.46542  1.0000
  C   C7008     1.0  0.85632  0.52361  0.48707  1.0000
  C   C7009     1.0  0.78595  0.45642  0.60530  1.0000
  C   C7010     1.0  0.84037  0.49200  0.62348  1.0000
  C   C7011     1.0  0.79035  0.48783  0.65860  1.0000
  C   C7012     1.0  0.80228  0.51184  0.70075  1.0000
  C   C7013     1.0  0.85641  0.45570  0.68807  1.0000
  C   C7014     1.0  0.86403  0.48305  0.65267  1.0000
  C   C7015     1.0  0.86194  0.49365  0.56402  1.0000
  C   C7016     1.0  0.85125  0.48743  0.64343  1.0000
  C   C7017     1.0  0.77509  0.48095  0.74088  1.0000
  C   C7018     1.0  0.88611  0.49314  0.72248  1.0000
  C   C7019     1.0  0.77526  0.50599  0.75722  1.0000
  C   C7020     1.0  0.81096  0.51550  0.74366  1.0000
  C   C7021     1.0  0.85807  0.48928  0.77168  1.0000
  C   C7022     1.0  0.87674  0.49196  0.78864  1.0000
  C   C7023     1.0  0.85008  0.48119  0.69978  1.0000
  C   C7024     1.0  0.87612  0.50344  0.73551  1.0000
  C   C7025     1.0  0.78059  0.46002  0.82746  1.0000
  C   C7026     1.0  0.84753  0.45210  0.84033  1.0000
  C   C7027     1.0  0.77167  0.51450  0.84972  1.0000
  C   C7028     1.0  0.81129  0.49599  0.86318  1.0000
  C   C7029     1.0  0.84121  0.45651  0.82828  1.0000
  C   C7030     1.0  0.89107  0.45411  0.86029  1.0000
  C   C7031     1.0  0.87256  0.48928  0.79326  1.0000
  C   C7032     1.0  0.90505  0.51112  0.82293  1.0000
  C   C7033     1.0  0.79625  0.46449  0.92767  1.0000
  C   C7034     1.0  0.83963  0.47393  0.92259  1.0000
  C   C7035     1.0  0.78151  0.48569  0.95467  1.0000
  C   C7036     1.0  0.84944  0.52572  0.96253  1.0000
  C   C7037     1.0  0.83315  0.47004  0.96722  1.0000
  C   C7038     1.0  0.87395  0.47839  0.96893  1.0000
  C   C7039     1.0  0.93514  0.51321  0.93248  1.0000
  C   C7040     1.0  0.86958  0.49878  0.94834  1.0000
  C   C7041     1.0  0.81884  0.52329  0.01744  1.0000
  C   C7042     1.0  0.86129  0.54091  0.98512  1.0000
  C   C7043     1.0  0.80135  0.55728  0.07994  1.0000
  C   C7044     1.0  0.85057  0.58290  0.07576  1.0000
  C   C7045     1.0  0.86884  0.51120  0.05548  1.0000
  C   C7046     1.0  0.89830  0.51913  0.06456  1.0000
  C   C7047     1.0  0.84586  0.54955  0.99442  1.0000
  C   C7048     1.0  0.86728  0.57966  0.99332  1.0000
  C   C7049     1.0  0.75213  0.53316  0.09848  1.0000
  C   C7050     1.0  0.81038  0.52045  0.11013  1.0000
  C   C7051     1.0  0.82785  0.54973  0.15453  1.0000
  C   C7052     1.0  0.82970  0.55631  0.17761  1.0000
  C   C7053     1.0  0.83419  0.54174  0.13081  1.0000
  C   C7054     1.0  0.83052  0.54471  0.17802  1.0000
  C   C7055     1.0  0.89369  0.53219  0.13916  1.0000
  C   C7056     1.0  0.85123  0.56513  0.15246  1.0000
  C   C7057     1.0  0.82914  0.50585  0.24268  1.0000
  C   C7058     1.0  0.83167  0.54919  0.23958  1.0000
  C   C7059     1.0  0.83845  0.57598  0.25658  1.0000
  C   C7060     1.0  0.82714  0.57468  0.30418  1.0000
  C   C7061     1.0  0.84626  0.52608  0.21633  1.0000
  C   C7062     1.0  0.91036  0.56936  0.25206  1.0000
  C   C7063     1.0  0.82966  0.54838  0.19762  1.0000
  C   C7064     1.0  0.89789  0.55924  0.22600  1.0000
  C   C7065     1.0  0.78809  0.51111  0.31954  1.0000
  C   C7066     1.0  0.80828  0.55237  0.36636  1.0000
  C   C7067     1.0  0.81637  0.53826  0.34224  1.0000
  C   C7068     1.0  0.81097  0.55657  0.36006  1.0000
  C   C7069     1.0  0.88325  0.52132  0.35511  1.0000
  C   C7070     1.0  0.88685  0.53628  0.38809  1.0000
  C   C7071     1.0  0.83380  0.57785  0.30523  1.0000
  C   C7072     1.0  0.87495  0.55426  0.32387  1.0000
  C   C7073     1.0  0.81652  0.51270  0.42326  1.0000
  C   C7074     1.0  0.79421  0.54721  0.42089  1.0000
  C   C7075     1.0  0.82416  0.53994  0.44882  1.0000
  C   C7076     1.0  0.81367  0.58269  0.45999  1.0000
  C   C7077     1.0  0.82195  0.51562  0.42667  1.0000
  C   C7078     1.0  0.86674  0.52592  0.47828  1.0000
  C   C7079     1.0  0.86722  0.58022  0.39359  1.0000
  C   C7080     1.0  0.88709  0.56829  0.43028  1.0000
  C   C7081     1.0  0.83663  0.54157  0.50528  1.0000
  C   C7082     1.0  0.83925  0.53851  0.53676  1.0000
  C   C7083     1.0  0.78630  0.53757  0.53873  1.0000
  C   C7084     1.0  0.83132  0.56649  0.59275  1.0000
  C   C7085     1.0  0.84744  0.53687  0.55190  1.0000
  C   C7086     1.0  0.87667  0.51540  0.60495  1.0000
  C   C7087     1.0  0.82351  0.55351  0.52429  1.0000
  C   C7088     1.0  0.88603  0.58425  0.49729  1.0000
  C   C7089     1.0  0.79801  0.50787  0.62782  1.0000
  C   C7090     1.0  0.83939  0.52117  0.67256  1.0000
  C   C7091     1.0  0.79713  0.53995  0.66699  1.0000
  C   C7092     1.0  0.82427  0.56895  0.69005  1.0000
  C   C7093     1.0  0.87551  0.52741  0.63821  1.0000
  C   C7094     1.0  0.90849  0.54468  0.66984  1.0000
  C   C7095     1.0  0.86118  0.54522  0.61068  1.0000
  C   C7096     1.0  0.87399  0.58106  0.60610  1.0000
  C   C7097     1.0  0.81658  0.51912  0.66866  1.0000
  C   C7098     1.0  0.83680  0.55403  0.72320  1.0000
  C   C7099     1.0  0.73796  0.56127  0.76846  1.0000
  C   C7100     1.0  0.80743  0.57445  0.75838  1.0000
  C   C7101     1.0  0.82021  0.52524  0.75552  1.0000
  C   C7102     1.0  0.86635  0.52292  0.81359  1.0000
  C   C7103     1.0  0.84659  0.54213  0.67815  1.0000
  C   C7104     1.0  0.86795  0.55995  0.69936  1.0000
  C   C7105     1.0  0.77312  0.52864  0.81742  1.0000
  C   C7106     1.0  0.86816  0.52675  0.80678  1.0000
  C   C7107     1.0  0.82186  0.54167  0.84677  1.0000
  C   C7108     1.0  0.83612  0.55270  0.90016  1.0000
  C   C7109     1.0  0.85100  0.52828  0.85146  1.0000
  C   C7110     1.0  0.91093  0.53202  0.87074  1.0000
  C   C7111     1.0  0.83670  0.56923  0.81139  1.0000
  C   C7112     1.0  0.89299  0.57609  0.81530  1.0000
  C   C7113     1.0  0.81021  0.51597  0.89406  1.0000
  C   C7114     1.0  0.82491  0.51771  0.91575  1.0000
  C   C7115     1.0  0.79284  0.57316  0.97042  1.0000
  C   C7116     1.0  0.84857  0.55833  0.94653  1.0000
  C   C7117     1.0  0.84174  0.54320  0.94618  1.0000
  C   C7118     1.0  0.87233  0.54788  0.96394  1.0000
  C   C7119     1.0  0.88681  0.56826  0.87359  1.0000
  C   C7120     1.0  0.85047  0.58061  0.88819  1.0000
  C   C7121     1.0  0.76972  0.57419  0.00372  1.0000
  C   C7122     1.0  0.80882  0.59273  0.05575  1.0000
  C   C7123     1.0  0.80452  0.58278  0.00302  1.0000
  C   C7124     1.0  0.79947  0.63610  0.10676  1.0000
  C   C7125     1.0  0.88101  0.58870  0.03452  1.0000
  C   C7126     1.0  0.89910  0.60515  0.06131  1.0000
  C   C7127     1.0  0.84894  0.60913  0.99438  1.0000
  C   C7128     1.0  0.89660  0.63634  0.02527  1.0000
  C   C7129     1.0  0.79917  0.58593  0.13177  1.0000
  C   C7130     1.0  0.80861  0.62203  0.13186  1.0000
  C   C7131     1.0  0.86020  0.61125  0.15429  1.0000
  C   C7132     1.0  0.78100  0.61289  0.16863  1.0000
  C   C7133     1.0  0.83911  0.58478  0.14749  1.0000
  C   C7134     1.0  0.90289  0.58926  0.19556  1.0000
  C   C7135     1.0  0.86359  0.61849  0.08066  1.0000
  C   C7136     1.0  0.85477  0.63167  0.09691  1.0000
  C   C7137     1.0  0.80977  0.58128  0.22839  1.0000
  C   C7138     1.0  0.80180  0.58547  0.20869  1.0000
  C   C7139     1.0  0.81778  0.62219  0.26856  1.0000
  C   C7140     1.0  0.80269  0.62919  0.28787  1.0000
  C   C7141     1.0  0.84244  0.58736  0.22309  1.0000
  C   C7142     1.0  0.87770  0.59274  0.30647  1.0000
  C   C7143     1.0  0.83931  0.63550  0.20469  1.0000
  C   C7144     1.0  0.85898  0.62864  0.20725  1.0000
  C   C7145     1.0  0.81569  0.57388  0.27022  1.0000
  C   C7146     1.0  0.78843  0.59700  0.32815  1.0000
  C   C7147     1.0  0.79440  0.62318  0.34757  1.0000
  C   C7148     1.0  0.82234  0.60329  0.38673  1.0000
  C   C7149     1.0  0.86217  0.59211  0.34784  1.0000
  C   C7150     1.0  0.87272  0.60007  0.40115  1.0000
  C   C7151     1.0  0.87337  0.63144  0.31171  1.0000
  C   C7152     1.0  0.88231  0.62633  0.30388  1.0000
  C   C7153     1.0  0.82473  0.59047  0.37855  1.0000
  C   C7154     1.0  0.77920  0.62833  0.43236  1.0000
  C   C7155     1.0  0.75496  0.59507  0.46202  1.0000
  C   C7156     1.0  0.81891  0.04843  0.48494  1.0000
  C   C7157     1.0  0.84698  0.56827  0.46452  1.0000
  C   C7158     1.0  0.85867  0.58771  0.49645  1.0000
  C   C7159     1.0  0.82386  0.61795  0.42750  1.0000
  C   C7160     1.0  0.86121  0.62494  0.37317  1.0000
  C   C7161     1.0  0.80704  0.58940  0.50921  1.0000
  C   C7162     1.0  0.82332  0.61342  0.51463  1.0000
  C   C7163     1.0  0.77386  0.61735  0.56391  1.0000
  C   C7164     1.0  0.85537  0.63809  0.55582  1.0000
  C   C7165     1.0  0.83427  0.57852  0.54834  1.0000
  C   C7166     1.0  0.86377  0.60166  0.57591  1.0000
  C   C7167     1.0  0.84980  0.60246  0.49436  1.0000
  C   C7168     1.0  0.86355  0.05321  0.51454  1.0000
  C   C7169     1.0  0.79772  0.59392  0.63081  1.0000
  C   C7170     1.0  0.82099  0.59555  0.61449  1.0000
  C   C7171     1.0  0.79198  0.58789  0.68232  1.0000
  C   C7172     1.0  0.84659  0.62144  0.69141  1.0000
  C   C7173     1.0  0.88608  0.58349  0.63626  1.0000
  C   C7174     1.0  0.84458  0.61219  0.66018  1.0000
  C   C7175     1.0  0.84035  0.60876  0.58905  1.0000
  C   C7176     1.0  0.86770  0.64214  0.64786  1.0000
  C   C7177     1.0  0.80630  0.59178  0.68453  1.0000
  C   C7178     1.0  0.84649  0.61206  0.70494  1.0000
  C   C7179     1.0  0.81961  0.61580  0.76705  1.0000
  C   C7180     1.0  0.81445  0.63121  0.77633  1.0000
  C   C7181     1.0  0.79453  0.58443  0.77837  1.0000
  C   C7182     1.0  0.88092  0.60833  0.75002  1.0000
  C   C7183     1.0  0.87462  0.62269  0.75206  1.0000
  C   C7184     1.0  0.88072  0.64359  0.77513  1.0000
  C   C7185     1.0  0.77293  0.57440  0.80084  1.0000
  C   C7186     1.0  0.82383  0.60144  0.81397  1.0000
  C   C7187     1.0  0.78733  0.62663  0.82623  1.0000
  C   C7188     1.0  0.82694  0.61605  0.86444  1.0000
  C   C7189     1.0  0.85788  0.57692  0.83807  1.0000
  C   C7190     1.0  0.90942  0.61828  0.88259  1.0000
  C   C7191     1.0  0.85123  0.60663  0.84872  1.0000
  C   C7192     1.0  0.90114  0.04449  0.85710  1.0000
  C   C7193     1.0  0.79283  0.57517  0.92242  1.0000
  C   C7194     1.0  0.82578  0.59809  0.90737  1.0000
  C   C7195     1.0  0.79671  0.61173  0.97490  1.0000
  C   C7196     1.0  0.81186  0.64545  0.00154  1.0000
  C   C7197     1.0  0.86631  0.56094  0.94726  1.0000
  C   C7198     1.0  0.86884  0.57913  0.99003  1.0000
  C   C7199     1.0  0.81722  0.62389  0.90968  1.0000
  C   C7200     1.0  0.86166  0.60931  0.90212  1.0000
  C   C7201     1.0  0.92178  0.62190  0.99927  1.0000
  C   C7202     1.0  0.92366  0.03491  0.03775  1.0000
  C   C7203     1.0  0.89021  0.07894  0.03568  1.0000
  C   C7204     1.0  0.93169  0.07176  0.07785  1.0000
  C   C7205     1.0  0.95210  0.04965  0.04135  1.0000
  C   C7206     1.0  0.94071  0.03511  0.11117  1.0000
  C   C7207     1.0  0.94865  0.05705  0.00073  1.0000
  C   C7208     1.0  0.99890  0.08775  0.00338  1.0000
  C   C7209     1.0  0.91237  0.61816  0.11814  1.0000
  C   C7210     1.0  0.87089  0.03580  0.12406  1.0000
  C   C7211     1.0  0.87972  0.05921  0.13187  1.0000
  C   C7212     1.0  0.92164  0.07564  0.17033  1.0000
  C   C7213     1.0  0.96210  0.03617  0.12830  1.0000
  C   C7214     1.0  0.97191  0.64185  0.20593  1.0000
  C   C7215     1.0  0.95146  0.04854  0.07908  1.0000
  C   C7216     1.0  0.98625  0.07621  0.13416  1.0000
  C   C7217     1.0  0.90370  0.64353  0.20584  1.0000
  C   C7218     1.0  0.91749  0.06379  0.19375  1.0000
  C   C7219     1.0  0.87212  0.06276  0.29222  1.0000
  C   C7220     1.0  0.92626  0.07693  0.26830  1.0000
  C   C7221     1.0  0.97491  0.62501  0.22855  1.0000
  C   C7222     1.0  0.99967  0.07007  0.26536  1.0000
  C   C7223     1.0  0.93884  0.07775  0.23477  1.0000
  C   C7224     1.0  0.96487  0.08366  0.18985  1.0000
  C   C7225     1.0  0.88366  0.03725  0.30969  1.0000
  C   C7226     1.0  0.87841  0.03586  0.32700  1.0000
  C   C7227     1.0  0.86364  0.07479  0.32749  1.0000
  C   C7228     1.0  0.90450  0.09421  0.37087  1.0000
  C   C7229     1.0  0.97057  0.64409  0.34830  1.0000
  C   C7230     1.0  0.00789  0.04871  0.36299  1.0000
  C   C7231     1.0  0.97059  0.07624  0.26021  1.0000
  C   C7232     1.0  0.97209  0.10283  0.30632  1.0000
  C   C7233     1.0  0.90954  0.04159  0.38503  1.0000
  C   C7234     1.0  0.92319  0.03769  0.43647  1.0000
  C   C7235     1.0  0.90674  0.08065  0.46204  1.0000
  C   C7236     1.0  0.93218  0.09962  0.45164  1.0000
  C   C7237     1.0  0.95293  0.04428  0.45103  1.0000
  C   C7238     1.0  0.97305  0.05158  0.49429  1.0000
  C   C7239     1.0  0.94103  0.06651  0.44899  1.0000
  C   C7240     1.0  0.94810  0.09118  0.40454  1.0000
  C   C7241     1.0  0.90354  0.64063  0.50334  1.0000
  C   C7242     1.0  0.89326  0.04642  0.49248  1.0000
  C   C7243     1.0  0.89157  0.07939  0.54643  1.0000
  C   C7244     1.0  0.95301  0.08756  0.56346  1.0000
  C   C7245     1.0  0.94323  0.04554  0.55886  1.0000
  C   C7246     1.0  0.94128  0.05158  0.56689  1.0000
  C   C7247     1.0  0.96621  0.07571  0.49718  1.0000
  C   C7248     1.0  0.00415  0.08376  0.50688  1.0000
  C   C7249     1.0  0.88740  0.62440  0.59004  1.0000
  C   C7250     1.0  0.93306  0.05076  0.62686  1.0000
  C   C7251     1.0  0.90128  0.06975  0.65353  1.0000
  C   C7252     1.0  0.90354  0.07616  0.68205  1.0000
  C   C7253     1.0  0.97076  0.05005  0.66282  1.0000
  C   C7254     1.0  0.97921  0.04661  0.68432  1.0000
  C   C7255     1.0  0.96255  0.05578  0.59402  1.0000
  C   C7256     1.0  0.96952  0.07538  0.60653  1.0000
  C   C7257     1.0  0.89298  0.03540  0.69376  1.0000
  C   C7258     1.0  0.92945  0.04478  0.72786  1.0000
  C   C7259     1.0  0.95457  0.06126  0.74455  1.0000
  C   C7260     1.0  0.93466  0.09161  0.77924  1.0000
  C   C7261     1.0  0.95156  0.63556  0.71637  1.0000
  C   C7262     1.0  0.96930  0.06377  0.76279  1.0000
  C   C7263     1.0  0.96143  0.05321  0.70503  1.0000
  C   C7264     1.0  0.98960  0.10260  0.72269  1.0000
  C   C7265     1.0  0.91787  0.05909  0.81922  1.0000
  C   C7266     1.0  0.92170  0.64676  0.82354  1.0000
  C   C7267     1.0  0.90663  0.06459  0.85627  1.0000
  C   C7268     1.0  0.94326  0.08666  0.90673  1.0000
  C   C7269     1.0  0.93509  0.04214  0.83462  1.0000
  C   C7270     1.0  0.02945  0.64430  0.90648  1.0000
  C   C7271     1.0  0.95218  0.05051  0.79077  1.0000
  C   C7272     1.0  0.95467  0.07430  0.84660  1.0000
  C   C7273     1.0  0.92818  0.04170  0.84546  1.0000
  C   C7274     1.0  0.92148  0.03651  0.93757  1.0000
  C   C7275     1.0  0.89722  0.06733  0.95940  1.0000
  C   C7276     1.0  0.96122  0.07581  0.98158  1.0000
  C   C7277     1.0  0.93817  0.64675  0.95387  1.0000
  C   C7278     1.0  0.97627  0.64306  0.96537  1.0000
  C   C7279     1.0  0.98725  0.05599  0.89667  1.0000
  C   C7280     1.0  0.97790  0.08131  0.92386  1.0000
  C   C7281     1.0  0.88494  0.09697  0.03825  1.0000
  C   C7282     1.0  0.90454  0.10463  0.03653  1.0000
  C   C7283     1.0  0.91302  0.13864  0.03314  1.0000
  C   C7284     1.0  0.91615  0.14069  0.11306  1.0000
  C   C7285     1.0  0.99044  0.10329  0.06919  1.0000
  C   C7286     1.0  0.96728  0.12622  0.07237  1.0000
  C   C7287     1.0  0.95172  0.11673  0.97060  1.0000
  C   C7288     1.0  0.92733  0.15251  0.98661  1.0000
  C   C7289     1.0  0.89142  0.09129  0.09607  1.0000
  C   C7290     1.0  0.91777  0.11089  0.07734  1.0000
  C   C7291     1.0  0.92421  0.11376  0.15158  1.0000
  C   C7292     1.0  0.91855  0.14455  0.17426  1.0000
  C   C7293     1.0  0.93721  0.10617  0.14816  1.0000
  C   C7294     1.0  0.96915  0.10619  0.21508  1.0000
  C   C7295     1.0  0.97799  0.12288  0.12429  1.0000
  C   C7296     1.0  0.97288  0.12677  0.14582  1.0000
  C   C7297     1.0  0.88067  0.12875  0.19642  1.0000
  C   C7298     1.0  0.91675  0.12257  0.21239  1.0000
  C   C7299     1.0  0.86327  0.12045  0.22252  1.0000
  C   C7300     1.0  0.92272  0.13572  0.23854  1.0000
  C   C7301     1.0  0.92883  0.08752  0.28166  1.0000
  C   C7302     1.0  0.95833  0.11896  0.29711  1.0000
  C   C7303     1.0  0.97248  0.13948  0.19752  1.0000
  C   C7304     1.0  0.94806  0.13276  0.18050  1.0000
  C   C7305     1.0  0.91313  0.11012  0.26918  1.0000
  C   C7306     1.0  0.93435  0.11999  0.32708  1.0000
  C   C7307     1.0  0.91349  0.12188  0.34261  1.0000
  C   C7308     1.0  0.95140  0.13303  0.35440  1.0000
  C   C7309     1.0  0.96458  0.10271  0.33880  1.0000
  C   C7310     1.0  0.97601  0.10740  0.38059  1.0000
  C   C7311     1.0  0.97421  0.12490  0.30752  1.0000
  C   C7312     1.0  0.97963  0.13744  0.32198  1.0000
  C   C7313     1.0  0.89112  0.06458  0.37690  1.0000
  C   C7314     1.0  0.90034  0.08193  0.40550  1.0000
  C   C7315     1.0  0.90269  0.13230  0.45465  1.0000
  C   C7316     1.0  0.91401  0.14870  0.47819  1.0000
  C   C7317     1.0  0.95814  0.08336  0.39543  1.0000
  C   C7318     1.0  0.98627  0.11563  0.46210  1.0000
  C   C7319     1.0  0.90111  0.11574  0.42469  1.0000
  C   C7320     1.0  0.95162  0.12429  0.43074  1.0000
  C   C7321     1.0  0.86935  0.12201  0.50458  1.0000
  C   C7322     1.0  0.91758  0.12126  0.55113  1.0000
  C   C7323     1.0  0.92631  0.14274  0.53531  1.0000
  C   C7324     1.0  0.93430  0.12743  0.56904  1.0000
  C   C7325     1.0  0.92260  0.08720  0.54611  1.0000
  C   C7326     1.0  0.98203  0.13863  0.58612  1.0000
  C   C7327     1.0  0.93285  0.12091  0.47244  1.0000
  C   C7328     1.0  0.99184  0.13712  0.57118  1.0000
  C   C7329     1.0  0.86606  0.08010  0.58284  1.0000
  C   C7330     1.0  0.89113  0.08098  0.64921  1.0000
  C   C7331     1.0  0.89161  0.14736  0.64924  1.0000
  C   C7332     1.0  0.90537  0.14230  0.68999  1.0000
  C   C7333     1.0  0.95454  0.09393  0.63489  1.0000
  C   C7334     1.0  0.97825  0.07449  0.64706  1.0000
  C   C7335     1.0  0.98961  0.12228  0.59489  1.0000
  C   C7336     1.0  0.96728  0.13188  0.61189  1.0000
  C   C7337     1.0  0.89513  0.12393  0.70586  1.0000
  C   C7338     1.0  0.92128  0.14045  0.70802  1.0000
  C   C7339     1.0  0.90081  0.11896  0.72060  1.0000
  C   C7340     1.0  0.93927  0.14017  0.79377  1.0000
  C   C7341     1.0  0.93579  0.09577  0.74093  1.0000
  C   C7342     1.0  0.97440  0.12117  0.74905  1.0000
  C   C7343     1.0  0.95141  0.10490  0.69311  1.0000
  C   C7344     1.0  0.97217  0.15155  0.70555  1.0000
  C   C7345     1.0  0.85406  0.09056  0.80879  1.0000
  C   C7346     1.0  0.93153  0.13430  0.77779  1.0000
  C   C7347     1.0  0.89196  0.12475  0.86564  1.0000
  C   C7348     1.0  0.91664  0.13795  0.88259  1.0000
  C   C7349     1.0  0.91348  0.08566  0.79679  1.0000
  C   C7350     1.0  0.96097  0.11269  0.86420  1.0000
  C   C7351     1.0  0.96431  0.14276  0.81861  1.0000
  C   C7352     1.0  0.94725  0.13321  0.79595  1.0000
  C   C7353     1.0  0.91270  0.09087  0.92669  1.0000
  C   C7354     1.0  0.94240  0.08635  0.92140  1.0000
  C   C7355     1.0  0.85275  0.12221  0.01573  1.0000
  C   C7356     1.0  0.93099  0.14494  0.94861  1.0000
  C   C7357     1.0  0.94931  0.11100  0.95574  1.0000
  C   C7358     1.0  0.97464  0.13272  0.98797  1.0000
  C   C7359     1.0  0.92986  0.11638  0.90985  1.0000
  C   C7360     1.0  0.98472  0.12584  0.95122  1.0000
  C   C7361     1.0  0.87022  0.15954  0.00382  1.0000
  C   C7362     1.0  0.96731  0.20640  0.01695  1.0000
  C   C7363     1.0  0.86612  0.18882  0.03505  1.0000
  C   C7364     1.0  0.95268  0.21203  0.09401  1.0000
  C   C7365     1.0  0.98116  0.12882  0.04789  1.0000
  C   C7366     1.0  0.00246  0.16987  0.09427  1.0000
  C   C7367     1.0  0.94693  0.19955  0.98684  1.0000
  C   C7368     1.0  0.96885  0.20643  0.02878  1.0000
  C   C7369     1.0  0.91901  0.13364  0.10450  1.0000
  C   C7370     1.0  0.91889  0.16289  0.11332  1.0000
  C   C7371     1.0  0.86040  0.17308  0.14809  1.0000
  C   C7372     1.0  0.91665  0.19153  0.21348  1.0000
  C   C7373     1.0  0.91973  0.16701  0.12123  1.0000
  C   C7374     1.0  0.98326  0.17626  0.17103  1.0000
  C   C7375     1.0  0.93430  0.18878  0.10389  1.0000
  C   C7376     1.0  0.97320  0.20643  0.11443  1.0000
  C   C7377     1.0  0.92697  0.16397  0.19179  1.0000
  C   C7378     1.0  0.91717  0.16067  0.27037  1.0000
  C   C7379     1.0  0.90188  0.16866  0.26324  1.0000
  C   C7380     1.0  0.92683  0.20344  0.24003  1.0000
  C   C7381     1.0  0.95943  0.16398  0.23704  1.0000
  C   C7382     1.0  0.95763  0.17275  0.29523  1.0000
  C   C7383     1.0  0.93818  0.19996  0.21024  1.0000
  C   C7384     1.0  0.99952  0.20143  0.22878  1.0000
  C   C7385     1.0  0.83312  0.18594  0.31260  1.0000
  C   C7386     1.0  0.94407  0.16957  0.31505  1.0000
  C   C7387     1.0  0.89825  0.17683  0.35875  1.0000
  C   C7388     1.0  0.93168  0.20004  0.36794  1.0000
  C   C7389     1.0  0.93984  0.15814  0.34293  1.0000
  C   C7390     1.0  0.00926  0.16714  0.38978  1.0000
  C   C7391     1.0  0.92471  0.18254  0.31655  1.0000
  C   C7392     1.0  0.96690  0.19318  0.33825  1.0000
  C   C7393     1.0  0.93714  0.16553  0.39786  1.0000
  C   C7394     1.0  0.91105  0.18087  0.39829  1.0000
  C   C7395     1.0  0.89236  0.19317  0.44449  1.0000
  C   C7396     1.0  0.91679  0.21559  0.48420  1.0000
  C   C7397     1.0  0.94151  0.15569  0.46992  1.0000
  C   C7398     1.0  0.94578  0.17459  0.45521  1.0000
  C   C7399     1.0  0.93322  0.17858  0.38464  1.0000
  C   C7400     1.0  0.97957  0.21802  0.43151  1.0000
  C   C7401     1.0  0.90082  0.14999  0.55225  1.0000
  C   C7402     1.0  0.94789  0.17100  0.54079  1.0000
  C   C7403     1.0  0.94815  0.19847  0.56733  1.0000
  C   C7404     1.0  0.93453  0.18960  0.59574  1.0000
  C   C7405     1.0  0.95918  0.16934  0.55264  1.0000
  C   C7406     1.0  0.95670  0.19382  0.56540  1.0000
  C   C7407     1.0  0.92722  0.18016  0.49043  1.0000
  C   C7408     1.0  0.01258  0.21096  0.49459  1.0000
  C   C7409     1.0  0.90967  0.14968  0.57724  1.0000
  C   C7410     1.0  0.94262  0.16687  0.59817  1.0000
  C   C7411     1.0  0.89170  0.18184  0.64069  1.0000
  C   C7412     1.0  0.92907  0.19625  0.69082  1.0000
  C   C7413     1.0  0.90239  0.14555  0.63250  1.0000
  C   C7414     1.0  0.98996  0.19963  0.67509  1.0000
  C   C7415     1.0  0.95841  0.21054  0.59103  1.0000
  C   C7416     1.0  0.99163  0.21254  0.64547  1.0000
  C   C7417     1.0  0.89096  0.16516  0.69060  1.0000
  C   C7418     1.0  0.92426  0.17124  0.75916  1.0000
  C   C7419     1.0  0.87405  0.16669  0.78011  1.0000
  C   C7420     1.0  0.93594  0.20154  0.78719  1.0000
  C   C7421     1.0  0.97675  0.14137  0.78456  1.0000
  C   C7422     1.0  0.98934  0.16903  0.76891  1.0000
  C   C7423     1.0  0.95333  0.20015  0.71146  1.0000
  C   C7424     1.0  0.95535  0.21790  0.74472  1.0000
  C   C7425     1.0  0.89417  0.17717  0.83556  1.0000
  C   C7426     1.0  0.92752  0.18781  0.78536  1.0000
  C   C7427     1.0  0.91187  0.18570  0.82673  1.0000
  C   C7428     1.0  0.92192  0.20776  0.88958  1.0000
  C   C7429     1.0  0.94137  0.16375  0.85137  1.0000
  C   C7430     1.0  0.98945  0.20569  0.88138  1.0000
  C   C7431     1.0  0.95210  0.19763  0.80385  1.0000
  C   C7432     1.0  0.02149  0.20521  0.79435  1.0000
  C   C7433     1.0  0.88849  0.17029  0.91013  1.0000
  C   C7434     1.0  0.93172  0.18693  0.93633  1.0000
  C   C7435     1.0  0.88548  0.17232  0.93180  1.0000
  C   C7436     1.0  0.93719  0.20737  0.96788  1.0000
  C   C7437     1.0  0.93568  0.15611  0.91533  1.0000
  C   C7438     1.0  0.98363  0.17613  0.96908  1.0000
  C   C7439     1.0  0.93759  0.19617  0.93607  1.0000
  C   C7440     1.0  0.94643  0.21889  0.93055  1.0000
  C   C7441     1.0  0.83798  0.20328  0.97952  1.0000
  C   C7442     1.0  0.91237  0.24608  0.01684  1.0000
  C   C7443     1.0  0.91207  0.26672  0.03856  1.0000
  C   C7444     1.0  0.91462  0.27566  0.08106  1.0000
  C   C7445     1.0  0.95822  0.23251  0.06332  1.0000
  C   C7446     1.0  0.97917  0.25576  0.05896  1.0000
  C   C7447     1.0  0.91647  0.28278  0.97354  1.0000
  C   C7448     1.0  0.97586  0.25183  0.00026  1.0000
  C   C7449     1.0  0.92969  0.22701  0.06442  1.0000
  C   C7450     1.0  0.92174  0.23733  0.15238  1.0000
  C   C7451     1.0  0.91292  0.22505  0.12013  1.0000
  C   C7452     1.0  0.89904  0.27326  0.14243  1.0000
  C   C7453     1.0  0.92745  0.19850  0.15829  1.0000
  C   C7454     1.0  0.95278  0.24183  0.16229  1.0000
  C   C7455     1.0  0.91875  0.24459  0.09305  1.0000
  C   C7456     1.0  0.95197  0.26853  0.12803  1.0000
  C   C7457     1.0  0.90397  0.22309  0.18709  1.0000
  C   C7458     1.0  0.92251  0.21809  0.24163  1.0000
  C   C7459     1.0  0.90060  0.24652  0.24114  1.0000
  C   C7460     1.0  0.88314  0.29494  0.29340  1.0000
  C   C7461     1.0  0.91925  0.21220  0.27230  1.0000
  C   C7462     1.0  0.98325  0.24137  0.22923  1.0000
  C   C7463     1.0  0.96429  0.24507  0.23342  1.0000
  C   C7464     1.0  0.94819  0.26354  0.24239  1.0000
  C   C7465     1.0  0.87796  0.24024  0.27026  1.0000
  C   C7466     1.0  0.91355  0.23378  0.34264  1.0000
  C   C7467     1.0  0.86529  0.25804  0.34425  1.0000
  C   C7468     1.0  0.92745  0.26686  0.35187  1.0000
  C   C7469     1.0  0.92552  0.20073  0.35145  1.0000
  C   C7470     1.0  0.98621  0.23869  0.35072  1.0000
  C   C7471     1.0  0.93498  0.23953  0.35071  1.0000
  C   C7472     1.0  0.99658  0.27444  0.29017  1.0000
  C   C7473     1.0  0.88699  0.22314  0.38776  1.0000
  C   C7474     1.0  0.92765  0.22577  0.43176  1.0000
  C   C7475     1.0  0.90503  0.25386  0.46242  1.0000
  C   C7476     1.0  0.93580  0.26363  0.48720  1.0000
  C   C7477     1.0  0.95234  0.23294  0.46523  1.0000
  C   C7478     1.0  0.01197  0.23059  0.44890  1.0000
  C   C7479     1.0  0.93808  0.25231  0.42094  1.0000
  C   C7480     1.0  0.95312  0.25746  0.42881  1.0000
  C   C7481     1.0  0.88058  0.23476  0.47319  1.0000
  C   C7482     1.0  0.95238  0.24178  0.51075  1.0000
  C   C7483     1.0  0.89606  0.25861  0.54702  1.0000
  C   C7484     1.0  0.96457  0.26913  0.53287  1.0000
  C   C7485     1.0  0.95273  0.20718  0.59071  1.0000
  C   C7486     1.0  0.98851  0.23653  0.59288  1.0000
  C   C7487     1.0  0.98021  0.24860  0.49308  1.0000
  C   C7488     1.0  0.96321  0.25465  0.50827  1.0000
  C   C7489     1.0  0.93657  0.19844  0.58294  1.0000
  C   C7490     1.0  0.89513  0.23829  0.63138  1.0000
  C   C7491     1.0  0.91050  0.23644  0.64274  1.0000
  C   C7492     1.0  0.93200  0.24469  0.64768  1.0000
  C   C7493     1.0  0.92120  0.21433  0.64427  1.0000
  C   C7494     1.0  0.98035  0.24110  0.66764  1.0000
  C   C7495     1.0  0.95932  0.23596  0.58627  1.0000
  C   C7496     1.0  0.94044  0.24692  0.62751  1.0000
  C   C7497     1.0  0.88488  0.21130  0.68752  1.0000
  C   C7498     1.0  0.92973  0.24025  0.72962  1.0000
  C   C7499     1.0  0.92636  0.25102  0.77837  1.0000
  C   C7500     1.0  0.93401  0.26164  0.74780  1.0000
  C   C7501     1.0  0.94308  0.23258  0.75293  1.0000
  C   C7502     1.0  0.95825  0.23951  0.79381  1.0000
  C   C7503     1.0  0.96608  0.26447  0.72441  1.0000
  C   C7504     1.0  0.97941  0.26566  0.72559  1.0000
  C   C7505     1.0  0.92109  0.21897  0.77905  1.0000
  C   C7506     1.0  0.88135  0.23856  0.81074  1.0000
  C   C7507     1.0  0.90147  0.23979  0.86847  1.0000
  C   C7508     1.0  0.95191  0.25176  0.88712  1.0000
  C   C7509     1.0  0.94137  0.22334  0.82307  1.0000
  C   C7510     1.0  0.00082  0.25013  0.87265  1.0000
  C   C7511     1.0  0.95027  0.24578  0.83813  1.0000
  C   C7512     1.0  0.98705  0.27162  0.82078  1.0000
  C   C7513     1.0  0.89443  0.22032  0.90200  1.0000
  C   C7514     1.0  0.95514  0.23342  0.93282  1.0000
  C   C7515     1.0  0.90846  0.23591  0.99089  1.0000
  C   C7516     1.0  0.91838  0.26951  0.00694  1.0000
  C   C7517     1.0  0.97096  0.21703  0.98293  1.0000
  C   C7518     1.0  0.93045  0.21979  0.95539  1.0000
  C   C7519     1.0  0.99924  0.22122  0.85635  1.0000
  C   C7520     1.0  0.01191  0.26343  0.91127  1.0000
  C   C7521     1.0  0.93037  0.26049  0.00919  1.0000
  C   C7522     1.0  0.91288  0.28339  0.04210  1.0000
  C   C7523     1.0  0.87016  0.30031  0.01725  1.0000
  C   C7524     1.0  0.90679  0.32742  0.07722  1.0000
  C   C7525     1.0  0.97698  0.28373  0.02654  1.0000
  C   C7526     1.0  0.93524  0.28313  0.06206  1.0000
  C   C7527     1.0  0.95402  0.32089  0.99597  1.0000
  C   C7528     1.0  0.97643  0.34289  0.00476  1.0000
  C   C7529     1.0  0.91061  0.28344  0.09409  1.0000
  C   C7530     1.0  0.94438  0.28339  0.16301  1.0000
  C   C7531     1.0  0.88621  0.29717  0.17503  1.0000
  C   C7532     1.0  0.90991  0.33756  0.19651  1.0000
  C   C7533     1.0  0.96736  0.28224  0.18361  1.0000
  C   C7534     1.0  0.94301  0.27799  0.20897  1.0000
  C   C7535     1.0  0.00194  0.29766  0.09219  1.0000
  C   C7536     1.0  0.94538  0.29301  0.14286  1.0000
  C   C7537     1.0  0.91656  0.26472  0.22106  1.0000
  C   C7538     1.0  0.93611  0.30816  0.25625  1.0000
  C   C7539     1.0  0.89566  0.28721  0.25970  1.0000
  C   C7540     1.0  0.94439  0.31499  0.26498  1.0000
  C   C7541     1.0  0.95493  0.27789  0.21144  1.0000
  C   C7542     1.0  0.98423  0.29888  0.28455  1.0000
  C   C7543     1.0  0.94976  0.30469  0.18371  1.0000
  C   C7544     1.0  0.94357  0.31715  0.23856  1.0000
  C   C7545     1.0  0.93381  0.27674  0.28573  1.0000
  C   C7546     1.0  0.93618  0.28039  0.33189  1.0000
  C   C7547     1.0  0.90652  0.31484  0.37924  1.0000
  C   C7548     1.0  0.94164  0.31394  0.38420  1.0000
  C   C7549     1.0  0.93098  0.26671  0.35950  1.0000
  C   C7550     1.0  0.94609  0.29198  0.37290  1.0000
  C   C7551     1.0  0.95312  0.31915  0.26658  1.0000
  C   C7552     1.0  0.93173  0.32982  0.27847  1.0000
  C   C7553     1.0  0.84746  0.25165  0.37599  1.0000
  C   C7554     1.0  0.94937  0.29061  0.39256  1.0000
  C   C7555     1.0  0.86310  0.33995  0.44652  1.0000
  C   C7556     1.0  0.90431  0.32845  0.46404  1.0000
  C   C7557     1.0  0.97383  0.25969  0.41654  1.0000
  C   C7558     1.0  0.99032  0.26391  0.45124  1.0000
  C   C7559     1.0  0.93401  0.29079  0.39216  1.0000
  C   C7560     1.0  0.00805  0.31593  0.41821  1.0000
  C   C7561     1.0  0.93731  0.28174  0.50378  1.0000
  C   C7562     1.0  0.92850  0.29133  0.53745  1.0000
  C   C7563     1.0  0.93217  0.32239  0.53148  1.0000
  C   C7564     1.0  0.94474  0.32755  0.55407  1.0000
  C   C7565     1.0  0.99004  0.27116  0.54172  1.0000
  C   C7566     1.0  0.94759  0.30414  0.54891  1.0000
  C   C7567     1.0  0.93989  0.32233  0.51585  1.0000
  C   C7568     1.0  0.96399  0.32465  0.54353  1.0000
  C   C7569     1.0  0.91272  0.26478  0.61355  1.0000
  C   C7570     1.0  0.92055  0.28850  0.65458  1.0000
  C   C7571     1.0  0.86600  0.30458  0.65885  1.0000
  C   C7572     1.0  0.94758  0.31949  0.69223  1.0000
  C   C7573     1.0  0.94469  0.28042  0.67494  1.0000
  C   C7574     1.0  0.99934  0.28711  0.66484  1.0000
  C   C7575     1.0  0.97091  0.30877  0.59646  1.0000
  C   C7576     1.0  0.00005  0.32763  0.59592  1.0000
  C   C7577     1.0  0.87470  0.29806  0.68490  1.0000
  C   C7578     1.0  0.96318  0.29080  0.77020  1.0000
  C   C7579     1.0  0.89496  0.32226  0.75049  1.0000
  C   C7580     1.0  0.92516  0.30462  0.80912  1.0000
  C   C7581     1.0  0.97698  0.26588  0.78007  1.0000
  C   C7582     1.0  0.97186  0.31226  0.80906  1.0000
  C   C7583     1.0  0.92468  0.31004  0.68282  1.0000
  C   C7584     1.0  0.98073  0.32987  0.70260  1.0000
  C   C7585     1.0  0.88287  0.28015  0.79754  1.0000
  C   C7586     1.0  0.95948  0.30242  0.78151  1.0000
  C   C7587     1.0  0.90439  0.30069  0.84577  1.0000
  C   C7588     1.0  0.95589  0.34316  0.84966  1.0000
  C   C7589     1.0  0.93467  0.26936  0.90052  1.0000
  C   C7590     1.0  0.97403  0.29547  0.85837  1.0000
  C   C7591     1.0  0.92450  0.32406  0.80982  1.0000
  C   C7592     1.0  0.95924  0.31819  0.80653  1.0000
  C   C7593     1.0  0.92578  0.27239  0.92779  1.0000
  C   C7594     1.0  0.92594  0.29145  0.86818  1.0000
  C   C7595     1.0  0.94944  0.33908  0.95410  1.0000
  C   C7596     1.0  0.92972  0.35618  0.97648  1.0000
  C   C7597     1.0  0.94885  0.27000  0.97362  1.0000
  C   C7598     1.0  0.99908  0.28709  0.98793  1.0000
  C   C7599     1.0  0.97514  0.30552  0.86486  1.0000
  C   C7600     1.0  0.94268  0.32734  0.94088  1.0000
  C   C7601     1.0  0.88714  0.35294  0.01960  1.0000
  C   C7602     1.0  0.92152  0.36671  0.02608  1.0000
  C   C7603     1.0  0.85362  0.36037  0.05472  1.0000
  C   C7604     1.0  0.91541  0.37289  0.07190  1.0000
  C   C7605     1.0  0.91028  0.32409  0.08192  1.0000
  C   C7606     1.0  0.98529  0.37513  0.08522  1.0000
  C   C7607     1.0  0.95562  0.38090  0.98573  1.0000
  C   C7608     1.0  0.96085  0.38927  0.00181  1.0000
  C   C7609     1.0  0.91682  0.33184  0.08446  1.0000
  C   C7610     1.0  0.89494  0.34881  0.12365  1.0000
  C   C7611     1.0  0.88622  0.37727  0.15271  1.0000
  C   C7612     1.0  0.92909  0.38911  0.16805  1.0000
  C   C7613     1.0  0.94828  0.34040  0.15504  1.0000
  C   C7614     1.0  0.98831  0.37385  0.17477  1.0000
  C   C7615     1.0  0.97161  0.38743  0.10863  1.0000
  C   C7616     1.0  0.92663  0.37680  0.14235  1.0000
  C   C7617     1.0  0.93813  0.35238  0.20629  1.0000
  C   C7618     1.0  0.90479  0.33012  0.20161  1.0000
  C   C7619     1.0  0.88924  0.35356  0.21591  1.0000
  C   C7620     1.0  0.94718  0.39799  0.24723  1.0000
  C   C7621     1.0  0.96721  0.32281  0.22862  1.0000
  C   C7622     1.0  0.97747  0.36237  0.28116  1.0000
  C   C7623     1.0  0.98613  0.36137  0.20708  1.0000
  C   C7624     1.0  0.99975  0.39826  0.27505  1.0000
  C   C7625     1.0  0.88199  0.32460  0.25754  1.0000
  C   C7626     1.0  0.91807  0.37343  0.35250  1.0000
  C   C7627     1.0  0.91824  0.35411  0.35641  1.0000
  C   C7628     1.0  0.95276  0.38875  0.38169  1.0000
  C   C7629     1.0  0.94384  0.33191  0.33764  1.0000
  C   C7630     1.0  0.97450  0.34194  0.38253  1.0000
  C   C7631     1.0  0.94890  0.37568  0.27066  1.0000
  C   C7632     1.0  0.97997  0.37969  0.37302  1.0000
  C   C7633     1.0  0.88711  0.33899  0.42800  1.0000
  C   C7634     1.0  0.90439  0.37596  0.43166  1.0000
  C   C7635     1.0  0.89198  0.35633  0.43759  1.0000
  C   C7636     1.0  0.92719  0.40443  0.44838  1.0000
  C   C7637     1.0  0.95866  0.32601  0.43764  1.0000
  C   C7638     1.0  0.97383  0.34565  0.46788  1.0000
  C   C7639     1.0  0.95678  0.36706  0.39722  1.0000
  C   C7640     1.0  0.91319  0.39137  0.35908  1.0000
  C   C7641     1.0  0.90830  0.35556  0.50582  1.0000
  C   C7642     1.0  0.89678  0.35584  0.54230  1.0000
  C   C7643     1.0  0.90036  0.36827  0.57849  1.0000
  C   C7644     1.0  0.91971  0.39038  0.63282  1.0000
  C   C7645     1.0  0.96232  0.35418  0.54807  1.0000
  C   C7646     1.0  0.96710  0.33603  0.57872  1.0000
  C   C7647     1.0  0.94137  0.37308  0.51092  1.0000
  C   C7648     1.0  0.00061  0.38569  0.52205  1.0000
  C   C7649     1.0  0.90618  0.34932  0.64471  1.0000
  C   C7650     1.0  0.91488  0.35644  0.59783  1.0000
  C   C7651     1.0  0.89415  0.35233  0.65684  1.0000
  C   C7652     1.0  0.93117  0.36810  0.67730  1.0000
  C   C7653     1.0  0.96352  0.35315  0.64703  1.0000
  C   C7654     1.0  0.98781  0.37981  0.63823  1.0000
  C   C7655     1.0  0.98142  0.36044  0.56929  1.0000
  C   C7656     1.0  0.97576  0.37921  0.62863  1.0000
  C   C7657     1.0  0.86054  0.32515  0.67288  1.0000
  C   C7658     1.0  0.89824  0.34738  0.72919  1.0000
  C   C7659     1.0  0.85447  0.37873  0.76522  1.0000
  C   C7660     1.0  0.93446  0.36533  0.77906  1.0000
  C   C7661     1.0  0.96217  0.32729  0.73928  1.0000
  C   C7662     1.0  0.97524  0.35296  0.76378  1.0000
  C   C7663     1.0  0.98622  0.39239  0.69102  1.0000
  C   C7664     1.0  0.96154  0.37695  0.73927  1.0000
  C   C7665     1.0  0.91836  0.33530  0.77239  1.0000
  C   C7666     1.0  0.91786  0.35028  0.84265  1.0000
  C   C7667     1.0  0.91357  0.36547  0.86713  1.0000
  C   C7668     1.0  0.91168  0.38411  0.88736  1.0000
  C   C7669     1.0  0.94292  0.35271  0.86811  1.0000
  C   C7670     1.0  0.00996  0.33721  0.88259  1.0000
  C   C7671     1.0  0.94629  0.39722  0.80814  1.0000
  C   C7672     1.0  0.97426  0.39531  0.81611  1.0000
  C   C7673     1.0  0.87175  0.36493  0.90045  1.0000
  C   C7674     1.0  0.95906  0.33861  0.92075  1.0000
  C   C7675     1.0  0.88619  0.36672  0.93410  1.0000
  C   C7676     1.0  0.92596  0.39242  0.97354  1.0000
  C   C7677     1.0  0.96893  0.33632  0.96764  1.0000
  C   C7678     1.0  0.93671  0.37059  0.98607  1.0000
  C   C7679     1.0  0.95824  0.36088  0.89064  1.0000
  C   C7680     1.0  0.94649  0.38724  0.93058  1.0000
  C   C7681     1.0  0.89690  0.40132  0.00525  1.0000
  C   C7682     1.0  0.91170  0.42571  0.02076  1.0000
  C   C7683     1.0  0.91512  0.44756  0.02400  1.0000
  C   C7684     1.0  0.90238  0.44878  0.08647  1.0000
  C   C7685     1.0  0.94093  0.40803  0.05184  1.0000
  C   C7686     1.0  0.00976  0.40745  0.08313  1.0000
  C   C7687     1.0  0.96452  0.42379  0.97194  1.0000
  C   C7688     1.0  0.97435  0.43702  0.00639  1.0000
  C   C7689     1.0  0.87369  0.38996  0.12218  1.0000
  C   C7690     1.0  0.91526  0.39249  0.11476  1.0000
  C   C7691     1.0  0.91590  0.45036  0.16176  1.0000
  C   C7692     1.0  0.93201  0.44984  0.14905  1.0000
  C   C7693     1.0  0.93776  0.39315  0.13171  1.0000
  C   C7694     1.0  0.03324  0.43268  0.16859  1.0000
  C   C7695     1.0  0.95429  0.45161  0.13878  1.0000
  C   C7696     1.0  0.97255  0.44458  0.09303  1.0000
  C   C7697     1.0  0.91521  0.40025  0.17601  1.0000
  C   C7698     1.0  0.90231  0.40544  0.23549  1.0000
  C   C7699     1.0  0.89804  0.43834  0.25510  1.0000
  C   C7700     1.0  0.92104  0.44916  0.23580  1.0000
  C   C7701     1.0  0.96090  0.40997  0.23664  1.0000
  C   C7702     1.0  0.98806  0.41538  0.23828  1.0000
  C   C7703     1.0  0.94268  0.44600  0.22542  1.0000
  C   C7704     1.0  0.95753  0.42907  0.23334  1.0000
  C   C7705     1.0  0.90173  0.39105  0.31798  1.0000
  C   C7706     1.0  0.95367  0.41804  0.31254  1.0000
  C   C7707     1.0  0.88511  0.44570  0.30263  1.0000
  C   C7708     1.0  0.89939  0.41602  0.37662  1.0000
  C   C7709     1.0  0.97938  0.38869  0.34332  1.0000
  C   C7710     1.0  0.00160  0.41296  0.36892  1.0000
  C   C7711     1.0  0.95492  0.43895  0.32418  1.0000
  C   C7712     1.0  0.98402  0.44824  0.32418  1.0000
  C   C7713     1.0  0.90717  0.40798  0.43877  1.0000
  C   C7714     1.0  0.94036  0.42874  0.44055  1.0000
  C   C7715     1.0  0.90438  0.43282  0.49202  1.0000
  C   C7716     1.0  0.92717  0.43669  0.46538  1.0000
  C   C7717     1.0  0.92495  0.38705  0.45040  1.0000
  C   C7718     1.0  0.98448  0.43348  0.49575  1.0000
  C   C7719     1.0  0.95244  0.44427  0.38457  1.0000
  C   C7720     1.0  0.97494  0.44340  0.43589  1.0000
  C   C7721     1.0  0.93616  0.39088  0.48045  1.0000
  C   C7722     1.0  0.94305  0.41991  0.51962  1.0000
  C   C7723     1.0  0.90097  0.43642  0.57656  1.0000
  C   C7724     1.0  0.91378  0.45424  0.59381  1.0000
  C   C7725     1.0  0.93186  0.39880  0.53381  1.0000
  C   C7726     1.0  0.95302  0.41866  0.61688  1.0000
  C   C7727     1.0  0.98978  0.40769  0.49983  1.0000
  C   C7728     1.0  0.95625  0.46565  0.52033  1.0000
  C   C7729     1.0  0.91370  0.39142  0.61007  1.0000
  C   C7730     1.0  0.94993  0.42468  0.58712  1.0000
  C   C7731     1.0  0.91790  0.42304  0.68860  1.0000
  C   C7732     1.0  0.90573  0.44398  0.64087  1.0000
  C   C7733     1.0  0.93381  0.37788  0.67866  1.0000
  C   C7734     1.0  0.94968  0.41721  0.67626  1.0000
  C   C7735     1.0  0.91615  0.44083  0.63341  1.0000
  C   C7736     1.0  0.97669  0.45021  0.62360  1.0000
  C   C7737     1.0  0.84878  0.41520  0.69567  1.0000
  C   C7738     1.0  0.89820  0.45041  0.77689  1.0000
  C   C7739     1.0  0.91469  0.43121  0.76447  1.0000
  C   C7740     1.0  0.91106  0.45797  0.79234  1.0000
  C   C7741     1.0  0.95781  0.41467  0.73327  1.0000
  C   C7742     1.0  0.99969  0.41735  0.79564  1.0000
  C   C7743     1.0  0.95694  0.42797  0.70005  1.0000
  C   C7744     1.0  0.97894  0.45547  0.74332  1.0000
  C   C7745     1.0  0.91349  0.39619  0.79489  1.0000
  C   C7746     1.0  0.85124  0.41258  0.81574  1.0000
  C   C7747     1.0  0.86590  0.41996  0.84092  1.0000
  C   C7748     1.0  0.88506  0.44194  0.86930  1.0000
  C   C7749     1.0  0.92842  0.39544  0.83735  1.0000
  C   C7750     1.0  0.00387  0.41664  0.88406  1.0000
  C   C7751     1.0  0.97514  0.43737  0.81467  1.0000
  C   C7752     1.0  0.97285  0.44692  0.80987  1.0000
  C   C7753     1.0  0.87112  0.37676  0.88952  1.0000
  C   C7754     1.0  0.92554  0.42615  0.94884  1.0000
  C   C7755     1.0  0.91533  0.43485  0.94462  1.0000
  C   C7756     1.0  0.97533  0.44309  0.96086  1.0000
  C   C7757     1.0  0.95404  0.41022  0.94197  1.0000
  C   C7758     1.0  0.96518  0.41976  0.96261  1.0000
  C   C7759     1.0  0.96467  0.44051  0.93819  1.0000
  C   C7760     1.0  0.95995  0.44644  0.94936  1.0000
  C   C7761     1.0  0.90762  0.45420  0.98850  1.0000
  C   C7762     1.0  0.92247  0.47370  0.04335  1.0000
  C   C7763     1.0  0.90796  0.50726  0.04641  1.0000
  C   C7764     1.0  0.92410  0.51795  0.05079  1.0000
  C   C7765     1.0  0.97215  0.46938  0.02297  1.0000
  C   C7766     1.0  0.00122  0.50302  0.10508  1.0000
  C   C7767     1.0  0.95456  0.49142  0.95460  1.0000
  C   C7768     1.0  0.97642  0.52979  0.06040  1.0000
  C   C7769     1.0  0.91975  0.46848  0.14808  1.0000
  C   C7770     1.0  0.93725  0.47203  0.17727  1.0000
  C   C7771     1.0  0.94051  0.47118  0.16435  1.0000
  C   C7772     1.0  0.93035  0.53650  0.17717  1.0000
  C   C7773     1.0  0.94133  0.46551  0.17026  1.0000
  C   C7774     1.0  0.97016  0.47437  0.16257  1.0000
  C   C7775     1.0  0.95457  0.47694  0.09777  1.0000
  C   C7776     1.0  0.94579  0.53269  0.15789  1.0000
  C   C7777     1.0  0.88026  0.48704  0.20639  1.0000
  C   C7778     1.0  0.91506  0.47524  0.20963  1.0000
  C   C7779     1.0  0.89367  0.50146  0.21831  1.0000
  C   C7780     1.0  0.93360  0.50265  0.30571  1.0000
  C   C7781     1.0  0.98360  0.47103  0.25363  1.0000
  C   C7782     1.0  0.98986  0.48869  0.28992  1.0000
  C   C7783     1.0  0.96029  0.48807  0.19795  1.0000
  C   C7784     1.0  0.95112  0.50586  0.19670  1.0000
  C   C7785     1.0  0.88748  0.43872  0.27347  1.0000
  C   C7786     1.0  0.92851  0.47985  0.30957  1.0000
  C   C7787     1.0  0.85357  0.48981  0.30456  1.0000
  C   C7788     1.0  0.90909  0.47468  0.37574  1.0000
  C   C7789     1.0  0.97634  0.49200  0.37314  1.0000
  C   C7790     1.0  0.98237  0.46734  0.38463  1.0000
  C   C7791     1.0  0.97669  0.44533  0.31428  1.0000
  C   C7792     1.0  0.97870  0.49883  0.34947  1.0000
  C   C7793     1.0  0.88898  0.48630  0.40964  1.0000
  C   C7794     1.0  0.90578  0.49468  0.40678  1.0000
  C   C7795     1.0  0.92405  0.47619  0.40029  1.0000
  C   C7796     1.0  0.92997  0.50093  0.47542  1.0000
  C   C7797     1.0  0.96785  0.45392  0.47654  1.0000
  C   C7798     1.0  0.98052  0.46297  0.47505  1.0000
  C   C7799     1.0  0.92293  0.49893  0.39729  1.0000
  C   C7800     1.0  0.95781  0.52485  0.46109  1.0000
  C   C7801     1.0  0.89341  0.45197  0.51818  1.0000
  C   C7802     1.0  0.95345  0.48880  0.48172  1.0000
  C   C7803     1.0  0.89397  0.48002  0.57823  1.0000
  C   C7804     1.0  0.95288  0.48924  0.59296  1.0000
  C   C7805     1.0  0.94745  0.46196  0.57466  1.0000
  C   C7806     1.0  0.99098  0.48882  0.60343  1.0000
  C   C7807     1.0  0.94006  0.49600  0.54087  1.0000
  C   C7808     1.0  0.95036  0.52989  0.53279  1.0000
  C   C7809     1.0  0.90553  0.46745  0.59594  1.0000
  C   C7810     1.0  0.93807  0.46835  0.61183  1.0000
  C   C7811     1.0  0.88019  0.49947  0.68033  1.0000
  C   C7812     1.0  0.88014  0.51572  0.70234  1.0000
  C   C7813     1.0  0.94151  0.47903  0.65004  1.0000
  C   C7814     1.0  0.95928  0.47092  0.61426  1.0000
  C   C7815     1.0  0.93437  0.51223  0.62222  1.0000
  C   C7816     1.0  0.98469  0.52009  0.64483  1.0000
  C   C7817     1.0  0.90210  0.47458  0.70376  1.0000
  C   C7818     1.0  0.94861  0.47398  0.70098  1.0000
  C   C7819     1.0  0.86522  0.46644  0.72621  1.0000
  C   C7820     1.0  0.92538  0.48491  0.77134  1.0000
  C   C7821     1.0  0.95429  0.44299  0.74144  1.0000
  C   C7822     1.0  0.97925  0.47856  0.77254  1.0000
  C   C7823     1.0  0.95998  0.49046  0.71648  1.0000
  C   C7824     1.0  0.97849  0.52466  0.71878  1.0000
  C   C7825     1.0  0.90333  0.46185  0.81841  1.0000
  C   C7826     1.0  0.92270  0.45056  0.85951  1.0000
  C   C7827     1.0  0.93027  0.50732  0.87121  1.0000
  C   C7828     1.0  0.90727  0.49990  0.84400  1.0000
  C   C7829     1.0  0.97749  0.47015  0.83520  1.0000
  C   C7830     1.0  0.00044  0.46958  0.87588  1.0000
  C   C7831     1.0  0.91784  0.48559  0.78397  1.0000
  C   C7832     1.0  0.97930  0.52469  0.84384  1.0000
  C   C7833     1.0  0.89679  0.44337  0.88177  1.0000
  C   C7834     1.0  0.90958  0.48108  0.89047  1.0000
  C   C7835     1.0  0.88215  0.50667  0.96603  1.0000
  C   C7836     1.0  0.93282  0.47602  0.97755  1.0000
  C   C7837     1.0  0.96729  0.47546  0.93549  1.0000
  C   C7838     1.0  0.97971  0.46379  0.97838  1.0000
  C   C7839     1.0  0.91029  0.48538  0.90667  1.0000
  C   C7840     1.0  0.98034  0.50889  0.91478  1.0000
  C   C7841     1.0  0.91699  0.52628  0.00726  1.0000
  C   C7842     1.0  0.92915  0.52776  0.99884  1.0000
  C   C7843     1.0  0.88316  0.56105  0.04488  1.0000
  C   C7844     1.0  0.92627  0.57216  0.06543  1.0000
  C   C7845     1.0  0.99982  0.52857  0.04651  1.0000
  C   C7846     1.0  0.01696  0.55591  0.06925  1.0000
  C   C7847     1.0  0.95600  0.54336  0.97126  1.0000
  C   C7848     1.0  0.98599  0.57252  0.02262  1.0000
  C   C7849     1.0  0.88707  0.54570  0.12173  1.0000
  C   C7850     1.0  0.89743  0.57698  0.09277  1.0000
  C   C7851     1.0  0.91819  0.55557  0.18958  1.0000
  C   C7852     1.0  0.90890  0.58247  0.14951  1.0000
  C   C7853     1.0  0.94243  0.51060  0.15653  1.0000
  C   C7854     1.0  0.91182  0.53282  0.15170  1.0000
  C   C7855     1.0  0.98927  0.55351  0.05255  1.0000
  C   C7856     1.0  0.98907  0.55090  0.15970  1.0000
  C   C7857     1.0  0.92873  0.52355  0.20795  1.0000
  C   C7858     1.0  0.93444  0.56153  0.19480  1.0000
  C   C7859     1.0  0.89584  0.54937  0.27841  1.0000
  C   C7860     1.0  0.91096  0.53840  0.25446  1.0000
  C   C7861     1.0  0.98387  0.54038  0.23509  1.0000
  C   C7862     1.0  0.97513  0.53049  0.26433  1.0000
  C   C7863     1.0  0.90894  0.54042  0.23221  1.0000
  C   C7864     1.0  0.98701  0.56827  0.23168  1.0000
  C   C7865     1.0  0.91825  0.53169  0.34072  1.0000
  C   C7866     1.0  0.92098  0.52806  0.30632  1.0000
  C   C7867     1.0  0.90607  0.56559  0.36435  1.0000
  C   C7868     1.0  0.92413  0.55611  0.37504  1.0000
  C   C7869     1.0  0.95274  0.54150  0.32642  1.0000
  C   C7870     1.0  0.96571  0.55718  0.38660  1.0000
  C   C7871     1.0  0.99134  0.54050  0.32162  1.0000
  C   C7872     1.0  0.98672  0.56374  0.32080  1.0000
  C   C7873     1.0  0.90879  0.50199  0.39991  1.0000
  C   C7874     1.0  0.90171  0.52736  0.43401  1.0000
  C   C7875     1.0  0.87119  0.54908  0.45939  1.0000
  C   C7876     1.0  0.92071  0.55490  0.45816  1.0000
  C   C7877     1.0  0.91373  0.55061  0.45125  1.0000
  C   C7878     1.0  0.96196  0.53047  0.45662  1.0000
  C   C7879     1.0  0.94289  0.54715  0.38731  1.0000
  C   C7880     1.0  0.98109  0.57944  0.39499  1.0000
  C   C7881     1.0  0.90901  0.51625  0.51635  1.0000
  C   C7882     1.0  0.91924  0.56650  0.51125  1.0000
  C   C7883     1.0  0.89770  0.55124  0.53533  1.0000
  C   C7884     1.0  0.92657  0.57558  0.60278  1.0000
  C   C7885     1.0  0.95278  0.53184  0.52552  1.0000
  C   C7886     1.0  0.98295  0.53389  0.60773  1.0000
  C   C7887     1.0  0.94252  0.54501  0.50402  1.0000
  C   C7888     1.0  0.98615  0.56727  0.52237  1.0000
  C   C7889     1.0  0.92243  0.51354  0.57128  1.0000
  C   C7890     1.0  0.94172  0.53849  0.61094  1.0000
  C   C7891     1.0  0.93149  0.55046  0.66761  1.0000
  C   C7892     1.0  0.93310  0.59524  0.70290  1.0000
  C   C7893     1.0  0.92049  0.51038  0.61497  1.0000
  C   C7894     1.0  0.99459  0.54872  0.65553  1.0000
  C   C7895     1.0  0.97596  0.55504  0.60555  1.0000
  C   C7896     1.0  0.96500  0.55054  0.60405  1.0000
  C   C7897     1.0  0.88097  0.52592  0.72987  1.0000
  C   C7898     1.0  0.90228  0.55936  0.74628  1.0000
  C   C7899     1.0  0.86879  0.56168  0.77122  1.0000
  C   C7900     1.0  0.90302  0.56236  0.78744  1.0000
  C   C7901     1.0  0.95089  0.52886  0.75560  1.0000
  C   C7902     1.0  0.97082  0.51107  0.78948  1.0000
  C   C7903     1.0  0.96870  0.55928  0.66731  1.0000
  C   C7904     1.0  0.98151  0.59714  0.73698  1.0000
  C   C7905     1.0  0.91935  0.51584  0.79032  1.0000
  C   C7906     1.0  0.91944  0.53566  0.83840  1.0000
  C   C7907     1.0  0.86368  0.54666  0.87448  1.0000
  C   C7908     1.0  0.89549  0.56115  0.85895  1.0000
  C   C7909     1.0  0.99240  0.52214  0.87067  1.0000
  C   C7910     1.0  0.94423  0.55390  0.83589  1.0000
  C   C7911     1.0  0.94331  0.56344  0.80084  1.0000
  C   C7912     1.0  0.97063  0.57285  0.83478  1.0000
  C   C7913     1.0  0.91735  0.53242  0.88567  1.0000
  C   C7914     1.0  0.93423  0.54949  0.93247  1.0000
  C   C7915     1.0  0.91245  0.52721  0.93958  1.0000
  C   C7916     1.0  0.91964  0.57993  0.96976  1.0000
  C   C7917     1.0  0.91881  0.51329  0.92227  1.0000
  C   C7918     1.0  0.98581  0.51677  0.98618  1.0000
  C   C7919     1.0  0.93539  0.55315  0.89208  1.0000
  C   C7920     1.0  0.99412  0.55801  0.93338  1.0000
  C   C7921     1.0  0.92984  0.54999  0.98946  1.0000
  C   C7922     1.0  0.93758  0.61472  0.04375  1.0000
  C   C7923     1.0  0.89490  0.62376  0.05375  1.0000
  C   C7924     1.0  0.90359  0.63615  0.06955  1.0000
  C   C7925     1.0  0.97544  0.57470  0.06268  1.0000
  C   C7926     1.0  0.96878  0.61500  0.09252  1.0000
  C   C7927     1.0  0.98698  0.62645  0.00871  1.0000
  C   C7928     1.0  0.95465  0.62141  0.03034  1.0000
  C   C7929     1.0  0.89435  0.60085  0.11617  1.0000
  C   C7930     1.0  0.96302  0.61340  0.07792  1.0000
  C   C7931     1.0  0.86190  0.61904  0.13374  1.0000
  C   C7932     1.0  0.90834  0.64303  0.16576  1.0000
  C   C7933     1.0  0.96373  0.61034  0.15260  1.0000
  C   C7934     1.0  0.96020  0.61440  0.17447  1.0000
  C   C7935     1.0  0.93544  0.60674  0.08796  1.0000
  C   C7936     1.0  0.99886  0.63062  0.12977  1.0000
  C   C7937     1.0  0.90697  0.57579  0.21735  1.0000
  C   C7938     1.0  0.95663  0.57417  0.23741  1.0000
  C   C7939     1.0  0.94102  0.60154  0.27817  1.0000
  C   C7940     1.0  0.90094  0.61407  0.25623  1.0000
  C   C7941     1.0  0.92205  0.57538  0.28324  1.0000
  C   C7942     1.0  0.94361  0.58139  0.29850  1.0000
  C   C7943     1.0  0.95781  0.62119  0.20672  1.0000
  C   C7944     1.0  0.97968  0.03432  0.26348  1.0000
  C   C7945     1.0  0.87105  0.58648  0.32100  1.0000
  C   C7946     1.0  0.91107  0.59252  0.36907  1.0000
  C   C7947     1.0  0.89902  0.64067  0.31272  1.0000
  C   C7948     1.0  0.91650  0.62387  0.36823  1.0000
  C   C7949     1.0  0.94534  0.59470  0.31898  1.0000
  C   C7950     1.0  0.99573  0.58382  0.36486  1.0000
  C   C7951     1.0  0.93864  0.62052  0.29972  1.0000
  C   C7952     1.0  0.96071  0.64368  0.32242  1.0000
  C   C7953     1.0  0.88637  0.58280  0.41156  1.0000
  C   C7954     1.0  0.93051  0.59660  0.41269  1.0000
  C   C7955     1.0  0.88118  0.61532  0.43765  1.0000
  C   C7956     1.0  0.94838  0.63533  0.48752  1.0000
  C   C7957     1.0  0.99112  0.57064  0.46864  1.0000
  C   C7958     1.0  0.94296  0.58174  0.47526  1.0000
  C   C7959     1.0  0.94849  0.60542  0.44943  1.0000
  C   C7960     1.0  0.93916  0.61915  0.40972  1.0000
  C   C7961     1.0  0.88850  0.59644  0.54897  1.0000
  C   C7962     1.0  0.90334  0.61327  0.54017  1.0000
  C   C7963     1.0  0.91935  0.61200  0.54952  1.0000
  C   C7964     1.0  0.92030  0.60887  0.59650  1.0000
  C   C7965     1.0  0.97815  0.58113  0.52302  1.0000
  C   C7966     1.0  0.97408  0.58962  0.55691  1.0000
  C   C7967     1.0  0.95973  0.59721  0.50916  1.0000
  C   C7968     1.0  0.96321  0.62582  0.50880  1.0000
  C   C7969     1.0  0.86275  0.59005  0.60033  1.0000
  C   C7970     1.0  0.93434  0.63107  0.65401  1.0000
  C   C7971     1.0  0.90571  0.58600  0.61737  1.0000
  C   C7972     1.0  0.88667  0.62420  0.71421  1.0000
  C   C7973     1.0  0.96103  0.58223  0.59223  1.0000
  C   C7974     1.0  0.98559  0.58661  0.64157  1.0000
  C   C7975     1.0  0.92249  0.63184  0.57283  1.0000
  C   C7976     1.0  0.95799  0.61703  0.62586  1.0000
  C   C7977     1.0  0.89039  0.57625  0.69240  1.0000
  C   C7978     1.0  0.88361  0.60551  0.74064  1.0000
  C   C7979     1.0  0.90557  0.63105  0.78268  1.0000
  C   C7980     1.0  0.91014  0.62460  0.79150  1.0000
  C   C7981     1.0  0.95713  0.59575  0.73647  1.0000
  C   C7982     1.0  0.99271  0.60434  0.72942  1.0000
  C   C7983     1.0  0.94649  0.61694  0.68796  1.0000
  C   C7984     1.0  0.93574  0.04756  0.73918  1.0000
  C   C7985     1.0  0.93412  0.58732  0.78252  1.0000
  C   C7986     1.0  0.93473  0.59600  0.83912  1.0000
  C   C7987     1.0  0.90705  0.62253  0.83879  1.0000
  C   C7988     1.0  0.94464  0.63842  0.91379  1.0000
  C   C7989     1.0  0.95933  0.60517  0.87886  1.0000
  C   C7990     1.0  0.97094  0.62074  0.87936  1.0000
  C   C7991     1.0  0.95140  0.60444  0.77029  1.0000
  C   C7992     1.0  0.97785  0.63276  0.85681  1.0000
  C   C7993     1.0  0.86319  0.56531  0.89104  1.0000
  C   C7994     1.0  0.92095  0.60079  0.92434  1.0000
  C   C7995     1.0  0.90939  0.60982  0.97201  1.0000
  C   C7996     1.0  0.92335  0.63953  0.97352  1.0000
  C   C7997     1.0  0.98045  0.59249  0.96887  1.0000
  C   C7998     1.0  0.01216  0.60171  0.93416  1.0000
  C   C7999     1.0  0.97228  0.59686  0.89889  1.0000
  C   C8000     1.0  0.01178  0.62063  0.91565  1.0000
  Au  Au1       1.0  0.29004  0.64227  0.29797  1.0000
  Au  Au2       1.0  0.17340  0.68269  0.33838  1.0000
  Au  Au3       1.0  0.24339  0.68269  0.29797  1.0000
  Au  Au4       1.0  0.19673  0.72312  0.29797  1.0000
  Au  Au5       1.0  0.22006  0.64227  0.33838  1.0000
  Au  Au6       1.0  0.22006  0.64227  0.41919  1.0000
  Au  Au7       1.0  0.29004  0.64227  0.37878  1.0000
  Au  Au8       1.0  0.24339  0.68269  0.37878  1.0000
  Au  Au9       1.0  0.29004  0.64227  0.45959  1.0000
  Au  Au10      1.0  0.12674  0.72312  0.41919  1.0000
  Au  Au11      1.0  0.19673  0.72312  0.37878  1.0000
  Au  Au12      1.0  0.15007  0.76354  0.37878  1.0000
  Au  Au13      1.0  0.17340  0.68269  0.41919  1.0000
  Au  Au14      1.0  0.17340  0.68269  0.50000  1.0000
  Au  Au15      1.0  0.24339  0.68269  0.45959  1.0000
  Au  Au16      1.0  0.19673  0.72312  0.45959  1.0000
  Au  Au17      1.0  0.22006  0.64227  0.50000  1.0000
  Au  Au18      1.0  0.22006  0.64227  0.58081  1.0000
  Au  Au19      1.0  0.29004  0.64227  0.54041  1.0000
  Au  Au20      1.0  0.24339  0.68269  0.54041  1.0000
  Au  Au21      1.0  0.29004  0.64227  0.62122  1.0000
  Au  Au22      1.0  0.15007  0.76354  0.45959  1.0000
  Au  Au23      1.0  0.12674  0.72312  0.50000  1.0000
  Au  Au24      1.0  0.12674  0.72312  0.58081  1.0000
  Au  Au25      1.0  0.19673  0.72312  0.54041  1.0000
  Au  Au26      1.0  0.15007  0.76354  0.54041  1.0000
  Au  Au27      1.0  0.17340  0.68269  0.58081  1.0000
  Au  Au28      1.0  0.17340  0.68269  0.66162  1.0000
  Au  Au29      1.0  0.24339  0.68269  0.62122  1.0000
  Au  Au30      1.0  0.19673  0.72312  0.62122  1.0000
  Au  Au31      1.0  0.22006  0.64227  0.66162  1.0000
  Au  Au32      1.0  0.29004  0.64227  0.70203  1.0000
  Au  Au33      1.0  0.24339  0.68269  0.70203  1.0000
  Au  Au34      1.0  0.15007  0.76354  0.62122  1.0000
  Au  Au35      1.0  0.19673  0.72312  0.70203  1.0000
  Au  Au36      1.0  0.43001  0.64227  0.21716  1.0000
  Au  Au37      1.0  0.31337  0.68269  0.25756  1.0000
  Au  Au38      1.0  0.38336  0.68269  0.21716  1.0000
  Au  Au39      1.0  0.33670  0.72312  0.21716  1.0000
  Au  Au40      1.0  0.36003  0.64227  0.25756  1.0000
  Au  Au41      1.0  0.36003  0.64227  0.33838  1.0000
  Au  Au42      1.0  0.43001  0.64227  0.29797  1.0000
  Au  Au43      1.0  0.38336  0.68269  0.29797  1.0000
  Au  Au44      1.0  0.43001  0.64227  0.37878  1.0000
  Au  Au45      1.0  0.22006  0.76354  0.25756  1.0000
  Au  Au46      1.0  0.29004  0.76354  0.21716  1.0000
  Au  Au47      1.0  0.24339  0.80397  0.21716  1.0000
  Au  Au48      1.0  0.26672  0.72312  0.25756  1.0000
  Au  Au49      1.0  0.26672  0.72312  0.33838  1.0000
  Au  Au50      1.0  0.33670  0.72312  0.29797  1.0000
  Au  Au51      1.0  0.29004  0.76354  0.29797  1.0000
  Au  Au52      1.0  0.31337  0.68269  0.33838  1.0000
  Au  Au53      1.0  0.31337  0.68269  0.41919  1.0000
  Au  Au54      1.0  0.38336  0.68269  0.37878  1.0000
  Au  Au55      1.0  0.33670  0.72312  0.37878  1.0000
  Au  Au56      1.0  0.36003  0.64227  0.41919  1.0000
  Au  Au57      1.0  0.36003  0.64227  0.50000  1.0000
  Au  Au58      1.0  0.43001  0.64227  0.45959  1.0000
  Au  Au59      1.0  0.38336  0.68269  0.45959  1.0000
  Au  Au60      1.0  0.43001  0.64227  0.54041  1.0000
  Au  Au61      1.0  0.17340  0.80397  0.33838  1.0000
  Au  Au62      1.0  0.24339  0.80397  0.29797  1.0000
  Au  Au63      1.0  0.19673  0.84440  0.29797  1.0000
  Au  Au64      1.0  0.22006  0.76354  0.33838  1.0000
  Au  Au65      1.0  0.22006  0.76354  0.41919  1.0000
  Au  Au66      1.0  0.29004  0.76354  0.37878  1.0000
  Au  Au67      1.0  0.24339  0.80397  0.37878  1.0000
  Au  Au68      1.0  0.26672  0.72312  0.41919  1.0000
  Au  Au69      1.0  0.26672  0.72312  0.50000  1.0000
  Au  Au70      1.0  0.33670  0.72312  0.45959  1.0000
  Au  Au71      1.0  0.29004  0.76354  0.45959  1.0000
  Au  Au72      1.0  0.31337  0.68269  0.50000  1.0000
  Au  Au73      1.0  0.31337  0.68269  0.58081  1.0000
  Au  Au74      1.0  0.38336  0.68269  0.54041  1.0000
  Au  Au75      1.0  0.33670  0.72312  0.54041  1.0000
  Au  Au76      1.0  0.36003  0.64227  0.58081  1.0000
  Au  Au77      1.0  0.36003  0.64227  0.66162  1.0000
  Au  Au78      1.0  0.43001  0.64227  0.62122  1.0000
  Au  Au79      1.0  0.38336  0.68269  0.62122  1.0000
  Au  Au80      1.0  0.43001  0.64227  0.70203  1.0000
  Au  Au81      1.0  0.19673  0.84440  0.37878  1.0000
  Au  Au82      1.0  0.17340  0.80397  0.41919  1.0000
  Au  Au83      1.0  0.17340  0.80397  0.50000  1.0000
  Au  Au84      1.0  0.24339  0.80397  0.45959  1.0000
  Au  Au85      1.0  0.19673  0.84440  0.45959  1.0000
  Au  Au86      1.0  0.22006  0.76354  0.50000  1.0000
  Au  Au87      1.0  0.22006  0.76354  0.58081  1.0000
  Au  Au88      1.0  0.29004  0.76354  0.54041  1.0000
  Au  Au89      1.0  0.24339  0.80397  0.54041  1.0000
  Au  Au90      1.0  0.26672  0.72312  0.58081  1.0000
  Au  Au91      1.0  0.26672  0.72312  0.66162  1.0000
  Au  Au92      1.0  0.33670  0.72312  0.62122  1.0000
  Au  Au93      1.0  0.29004  0.76354  0.62122  1.0000
  Au  Au94      1.0  0.31337  0.68269  0.66162  1.0000
  Au  Au95      1.0  0.31337  0.68269  0.74244  1.0000
  Au  Au96      1.0  0.38336  0.68269  0.70203  1.0000
  Au  Au97      1.0  0.33670  0.72312  0.70203  1.0000
  Au  Au98      1.0  0.36003  0.64227  0.74244  1.0000
  Au  Au99      1.0  0.43001  0.64227  0.78284  1.0000
  Au  Au100     1.0  0.38336  0.68269  0.78284  1.0000
  Au  Au101     1.0  0.19673  0.84440  0.54041  1.0000
  Au  Au102     1.0  0.17340  0.80397  0.58081  1.0000
  Au  Au103     1.0  0.17340  0.80397  0.66162  1.0000
  Au  Au104     1.0  0.24339  0.80397  0.62122  1.0000
  Au  Au105     1.0  0.19673  0.84440  0.62122  1.0000
  Au  Au106     1.0  0.22006  0.76354  0.66162  1.0000
  Au  Au107     1.0  0.22006  0.76354  0.74244  1.0000
  Au  Au108     1.0  0.29004  0.76354  0.70203  1.0000
  Au  Au109     1.0  0.24339  0.80397  0.70203  1.0000
  Au  Au110     1.0  0.26672  0.72312  0.74244  1.0000
  Au  Au111     1.0  0.33670  0.72312  0.78284  1.0000
  Au  Au112     1.0  0.29004  0.76354  0.78284  1.0000
  Au  Au113     1.0  0.19673  0.84440  0.70203  1.0000
  Au  Au114     1.0  0.24339  0.80397  0.78284  1.0000
  Au  Au115     1.0  0.45334  0.68269  0.17675  1.0000
  Au  Au116     1.0  0.52333  0.68269  0.13635  1.0000
  Au  Au117     1.0  0.47667  0.72312  0.13635  1.0000
  Au  Au118     1.0  0.50000  0.64227  0.17675  1.0000
  Au  Au119     1.0  0.50000  0.64227  0.25756  1.0000
  Au  Au120     1.0  0.56999  0.64227  0.21716  1.0000
  Au  Au121     1.0  0.52333  0.68269  0.21716  1.0000
  Au  Au122     1.0  0.56999  0.64227  0.29797  1.0000
  Au  Au123     1.0  0.36003  0.76354  0.17675  1.0000
  Au  Au124     1.0  0.43001  0.76354  0.13635  1.0000
  Au  Au125     1.0  0.38336  0.80397  0.13635  1.0000
  Au  Au126     1.0  0.40669  0.72312  0.17675  1.0000
  Au  Au127     1.0  0.40669  0.72312  0.25756  1.0000
  Au  Au128     1.0  0.47667  0.72312  0.21716  1.0000
  Au  Au129     1.0  0.43001  0.76354  0.21716  1.0000
  Au  Au130     1.0  0.45334  0.68269  0.25756  1.0000
  Au  Au131     1.0  0.45334  0.68269  0.33838  1.0000
  Au  Au132     1.0  0.52333  0.68269  0.29797  1.0000
  Au  Au133     1.0  0.47667  0.72312  0.29797  1.0000
  Au  Au134     1.0  0.50000  0.64227  0.33838  1.0000
  Au  Au135     1.0  0.50000  0.64227  0.41919  1.0000
  Au  Au136     1.0  0.56999  0.64227  0.37878  1.0000
  Au  Au137     1.0  0.52333  0.68269  0.37878  1.0000
  Au  Au138     1.0  0.56999  0.64227  0.45959  1.0000
  Au  Au139     1.0  0.31337  0.80397  0.17675  1.0000
  Au  Au140     1.0  0.31337  0.80397  0.25756  1.0000
  Au  Au141     1.0  0.38336  0.80397  0.21716  1.0000
  Au  Au142     1.0  0.33670  0.84440  0.21716  1.0000
  Au  Au143     1.0  0.36003  0.76354  0.25756  1.0000
  Au  Au144     1.0  0.36003  0.76354  0.33838  1.0000
  Au  Au145     1.0  0.43001  0.76354  0.29797  1.0000
  Au  Au146     1.0  0.38336  0.80397  0.29797  1.0000
  Au  Au147     1.0  0.40669  0.72312  0.33838  1.0000
  Au  Au148     1.0  0.40669  0.72312  0.41919  1.0000
  Au  Au149     1.0  0.47667  0.72312  0.37878  1.0000
  Au  Au150     1.0  0.43001  0.76354  0.37878  1.0000
  Au  Au151     1.0  0.45334  0.68269  0.41919  1.0000
  Au  Au152     1.0  0.45334  0.68269  0.50000  1.0000
  Au  Au153     1.0  0.52333  0.68269  0.45959  1.0000
  Au  Au154     1.0  0.47667  0.72312  0.45959  1.0000
  Au  Au155     1.0  0.50000  0.64227  0.50000  1.0000
  Au  Au156     1.0  0.50000  0.64227  0.58081  1.0000
  Au  Au157     1.0  0.56999  0.64227  0.54041  1.0000
  Au  Au158     1.0  0.52333  0.68269  0.54041  1.0000
  Au  Au159     1.0  0.56999  0.64227  0.62122  1.0000
  Au  Au160     1.0  0.26672  0.84440  0.25756  1.0000
  Au  Au161     1.0  0.26672  0.84440  0.33838  1.0000
  Au  Au162     1.0  0.33670  0.84440  0.29797  1.0000
  Au  Au163     1.0  0.29004  0.88482  0.29797  1.0000
  Au  Au164     1.0  0.31337  0.80397  0.33838  1.0000
  Au  Au165     1.0  0.31337  0.80397  0.41919  1.0000
  Au  Au166     1.0  0.38336  0.80397  0.37878  1.0000
  Au  Au167     1.0  0.33670  0.84440  0.37878  1.0000
  Au  Au168     1.0  0.36003  0.76354  0.41919  1.0000
  Au  Au169     1.0  0.36003  0.76354  0.50000  1.0000
  Au  Au170     1.0  0.43001  0.76354  0.45959  1.0000
  Au  Au171     1.0  0.38336  0.80397  0.45959  1.0000
  Au  Au172     1.0  0.40669  0.72312  0.50000  1.0000
  Au  Au173     1.0  0.40669  0.72312  0.58081  1.0000
  Au  Au174     1.0  0.47667  0.72312  0.54041  1.0000
  Au  Au175     1.0  0.43001  0.76354  0.54041  1.0000
  Au  Au176     1.0  0.45334  0.68269  0.58081  1.0000
  Au  Au177     1.0  0.45334  0.68269  0.66162  1.0000
  Au  Au178     1.0  0.52333  0.68269  0.62122  1.0000
  Au  Au179     1.0  0.47667  0.72312  0.62122  1.0000
  Au  Au180     1.0  0.50000  0.64227  0.66162  1.0000
  Au  Au181     1.0  0.50000  0.64227  0.74244  1.0000
  Au  Au182     1.0  0.56999  0.64227  0.70203  1.0000
  Au  Au183     1.0  0.52333  0.68269  0.70203  1.0000
  Au  Au184     1.0  0.56999  0.64227  0.78284  1.0000
  Au  Au185     1.0  0.22006  0.88482  0.33838  1.0000
  Au  Au186     1.0  0.22006  0.88482  0.41919  1.0000
  Au  Au187     1.0  0.29004  0.88482  0.37878  1.0000
  Au  Au188     1.0  0.24339  0.92525  0.37878  1.0000
  Au  Au189     1.0  0.26672  0.84440  0.41919  1.0000
  Au  Au190     1.0  0.26672  0.84440  0.50000  1.0000
  Au  Au191     1.0  0.33670  0.84440  0.45959  1.0000
  Au  Au192     1.0  0.29004  0.88482  0.45959  1.0000
  Au  Au193     1.0  0.31337  0.80397  0.50000  1.0000
  Au  Au194     1.0  0.31337  0.80397  0.58081  1.0000
  Au  Au195     1.0  0.38336  0.80397  0.54041  1.0000
  Au  Au196     1.0  0.33670  0.84440  0.54041  1.0000
  Au  Au197     1.0  0.36003  0.76354  0.58081  1.0000
  Au  Au198     1.0  0.36003  0.76354  0.66162  1.0000
  Au  Au199     1.0  0.43001  0.76354  0.62122  1.0000
  Au  Au200     1.0  0.38336  0.80397  0.62122  1.0000
  Au  Au201     1.0  0.40669  0.72312  0.66162  1.0000
  Au  Au202     1.0  0.40669  0.72312  0.74244  1.0000
  Au  Au203     1.0  0.47667  0.72312  0.70203  1.0000
  Au  Au204     1.0  0.43001  0.76354  0.70203  1.0000
  Au  Au205     1.0  0.45334  0.68269  0.74244  1.0000
  Au  Au206     1.0  0.45334  0.68269  0.82325  1.0000
  Au  Au207     1.0  0.52333  0.68269  0.78284  1.0000
  Au  Au208     1.0  0.47667  0.72312  0.78284  1.0000
  Au  Au209     1.0  0.50000  0.64227  0.82325  1.0000
  Au  Au210     1.0  0.52333  0.68269  0.86365  1.0000
  Au  Au211     1.0  0.24339  0.92525  0.45959  1.0000
  Au  Au212     1.0  0.22006  0.88482  0.50000  1.0000
  Au  Au213     1.0  0.22006  0.88482  0.58081  1.0000
  Au  Au214     1.0  0.29004  0.88482  0.54041  1.0000
  Au  Au215     1.0  0.24339  0.92525  0.54041  1.0000
  Au  Au216     1.0  0.26672  0.84440  0.58081  1.0000
  Au  Au217     1.0  0.26672  0.84440  0.66162  1.0000
  Au  Au218     1.0  0.33670  0.84440  0.62122  1.0000
  Au  Au219     1.0  0.29004  0.88482  0.62122  1.0000
  Au  Au220     1.0  0.31337  0.80397  0.66162  1.0000
  Au  Au221     1.0  0.31337  0.80397  0.74244  1.0000
  Au  Au222     1.0  0.38336  0.80397  0.70203  1.0000
  Au  Au223     1.0  0.33670  0.84440  0.70203  1.0000
  Au  Au224     1.0  0.36003  0.76354  0.74244  1.0000
  Au  Au225     1.0  0.36003  0.76354  0.82325  1.0000
  Au  Au226     1.0  0.43001  0.76354  0.78284  1.0000
  Au  Au227     1.0  0.38336  0.80397  0.78284  1.0000
  Au  Au228     1.0  0.40669  0.72312  0.82325  1.0000
  Au  Au229     1.0  0.47667  0.72312  0.86365  1.0000
  Au  Au230     1.0  0.43001  0.76354  0.86365  1.0000
  Au  Au231     1.0  0.24339  0.92525  0.62122  1.0000
  Au  Au232     1.0  0.22006  0.88482  0.66162  1.0000
  Au  Au233     1.0  0.29004  0.88482  0.70203  1.0000
  Au  Au234     1.0  0.26672  0.84440  0.74244  1.0000
  Au  Au235     1.0  0.33670  0.84440  0.78284  1.0000
  Au  Au236     1.0  0.31337  0.80397  0.82325  1.0000
  Au  Au237     1.0  0.38336  0.80397  0.86365  1.0000
  Au  Au238     1.0  0.54666  0.72312  0.17675  1.0000
  Au  Au239     1.0  0.61664  0.72312  0.13635  1.0000
  Au  Au240     1.0  0.56999  0.76354  0.13635  1.0000
  Au  Au241     1.0  0.59331  0.68269  0.17675  1.0000
  Au  Au242     1.0  0.59331  0.68269  0.25756  1.0000
  Au  Au243     1.0  0.66330  0.68269  0.21716  1.0000
  Au  Au244     1.0  0.61664  0.72312  0.21716  1.0000
  Au  Au245     1.0  0.63997  0.64227  0.25756  1.0000
  Au  Au246     1.0  0.63997  0.64227  0.33838  1.0000
  Au  Au247     1.0  0.70996  0.64227  0.29797  1.0000
  Au  Au248     1.0  0.66330  0.68269  0.29797  1.0000
  Au  Au249     1.0  0.70996  0.64227  0.37878  1.0000
  Au  Au250     1.0  0.45334  0.80397  0.17675  1.0000
  Au  Au251     1.0  0.52333  0.80397  0.13635  1.0000
  Au  Au252     1.0  0.47667  0.84440  0.13635  1.0000
  Au  Au253     1.0  0.50000  0.76354  0.17675  1.0000
  Au  Au254     1.0  0.50000  0.76354  0.25756  1.0000
  Au  Au255     1.0  0.56999  0.76354  0.21716  1.0000
  Au  Au256     1.0  0.52333  0.80397  0.21716  1.0000
  Au  Au257     1.0  0.54666  0.72312  0.25756  1.0000
  Au  Au258     1.0  0.54666  0.72312  0.33838  1.0000
  Au  Au259     1.0  0.61664  0.72312  0.29797  1.0000
  Au  Au260     1.0  0.56999  0.76354  0.29797  1.0000
  Au  Au261     1.0  0.59331  0.68269  0.33838  1.0000
  Au  Au262     1.0  0.59331  0.68269  0.41919  1.0000
  Au  Au263     1.0  0.66330  0.68269  0.37878  1.0000
  Au  Au264     1.0  0.61664  0.72312  0.37878  1.0000
  Au  Au265     1.0  0.63997  0.64227  0.41919  1.0000
  Au  Au266     1.0  0.63997  0.64227  0.50000  1.0000
  Au  Au267     1.0  0.70996  0.64227  0.45959  1.0000
  Au  Au268     1.0  0.66330  0.68269  0.45959  1.0000
  Au  Au269     1.0  0.70996  0.64227  0.54041  1.0000
  Au  Au270     1.0  0.40669  0.84440  0.17675  1.0000
  Au  Au271     1.0  0.40669  0.84440  0.25756  1.0000
  Au  Au272     1.0  0.47667  0.84440  0.21716  1.0000
  Au  Au273     1.0  0.43001  0.88482  0.21716  1.0000
  Au  Au274     1.0  0.45334  0.80397  0.25756  1.0000
  Au  Au275     1.0  0.45334  0.80397  0.33838  1.0000
  Au  Au276     1.0  0.52333  0.80397  0.29797  1.0000
  Au  Au277     1.0  0.47667  0.84440  0.29797  1.0000
  Au  Au278     1.0  0.50000  0.76354  0.33838  1.0000
  Au  Au279     1.0  0.50000  0.76354  0.41919  1.0000
  Au  Au280     1.0  0.56999  0.76354  0.37878  1.0000
  Au  Au281     1.0  0.52333  0.80397  0.37878  1.0000
  Au  Au282     1.0  0.54666  0.72312  0.41919  1.0000
  Au  Au283     1.0  0.54666  0.72312  0.50000  1.0000
  Au  Au284     1.0  0.61664  0.72312  0.45959  1.0000
  Au  Au285     1.0  0.56999  0.76354  0.45959  1.0000
  Au  Au286     1.0  0.59331  0.68269  0.50000  1.0000
  Au  Au287     1.0  0.59331  0.68269  0.58081  1.0000
  Au  Au288     1.0  0.66330  0.68269  0.54041  1.0000
  Au  Au289     1.0  0.61664  0.72312  0.54041  1.0000
  Au  Au290     1.0  0.63997  0.64227  0.58081  1.0000
  Au  Au291     1.0  0.63997  0.64227  0.66162  1.0000
  Au  Au292     1.0  0.70996  0.64227  0.62122  1.0000
  Au  Au293     1.0  0.66330  0.68269  0.62122  1.0000
  Au  Au294     1.0  0.70996  0.64227  0.70203  1.0000
  Au  Au295     1.0  0.36003  0.88482  0.25756  1.0000
  Au  Au296     1.0  0.36003  0.88482  0.33838  1.0000
  Au  Au297     1.0  0.43001  0.88482  0.29797  1.0000
  Au  Au298     1.0  0.38336  0.92525  0.29797  1.0000
  Au  Au299     1.0  0.40669  0.84440  0.33838  1.0000
  Au  Au300     1.0  0.40669  0.84440  0.41919  1.0000
  Au  Au301     1.0  0.47667  0.84440  0.37878  1.0000
  Au  Au302     1.0  0.43001  0.88482  0.37878  1.0000
  Au  Au303     1.0  0.45334  0.80397  0.41919  1.0000
  Au  Au304     1.0  0.45334  0.80397  0.50000  1.0000
  Au  Au305     1.0  0.52333  0.80397  0.45959  1.0000
  Au  Au306     1.0  0.47667  0.84440  0.45959  1.0000
  Au  Au307     1.0  0.50000  0.76354  0.50000  1.0000
  Au  Au308     1.0  0.50000  0.76354  0.58081  1.0000
  Au  Au309     1.0  0.56999  0.76354  0.54041  1.0000
  Au  Au310     1.0  0.52333  0.80397  0.54041  1.0000
  Au  Au311     1.0  0.54666  0.72312  0.58081  1.0000
  Au  Au312     1.0  0.54666  0.72312  0.66162  1.0000
  Au  Au313     1.0  0.61664  0.72312  0.62122  1.0000
  Au  Au314     1.0  0.56999  0.76354  0.62122  1.0000
  Au  Au315     1.0  0.59331  0.68269  0.66162  1.0000
  Au  Au316     1.0  0.59331  0.68269  0.74244  1.0000
  Au  Au317     1.0  0.66330  0.68269  0.70203  1.0000
  Au  Au318     1.0  0.61664  0.72312  0.70203  1.0000
  Au  Au319     1.0  0.63997  0.64227  0.74244  1.0000
  Au  Au320     1.0  0.66330  0.68269  0.78284  1.0000
  Au  Au321     1.0  0.31337  0.92525  0.33838  1.0000
  Au  Au322     1.0  0.31337  0.92525  0.41919  1.0000
  Au  Au323     1.0  0.38336  0.92525  0.37878  1.0000
  Au  Au324     1.0  0.33670  0.96568  0.37878  1.0000
  Au  Au325     1.0  0.36003  0.88482  0.41919  1.0000
  Au  Au326     1.0  0.36003  0.88482  0.50000  1.0000
  Au  Au327     1.0  0.43001  0.88482  0.45959  1.0000
  Au  Au328     1.0  0.38336  0.92525  0.45959  1.0000
  Au  Au329     1.0  0.40669  0.84440  0.50000  1.0000
  Au  Au330     1.0  0.40669  0.84440  0.58081  1.0000
  Au  Au331     1.0  0.47667  0.84440  0.54041  1.0000
  Au  Au332     1.0  0.43001  0.88482  0.54041  1.0000
  Au  Au333     1.0  0.45334  0.80397  0.58081  1.0000
  Au  Au334     1.0  0.45334  0.80397  0.66162  1.0000
  Au  Au335     1.0  0.52333  0.80397  0.62122  1.0000
  Au  Au336     1.0  0.47667  0.84440  0.62122  1.0000
  Au  Au337     1.0  0.50000  0.76354  0.66162  1.0000
  Au  Au338     1.0  0.50000  0.76354  0.74244  1.0000
  Au  Au339     1.0  0.56999  0.76354  0.70203  1.0000
  Au  Au340     1.0  0.52333  0.80397  0.70203  1.0000
  Au  Au341     1.0  0.54666  0.72312  0.74244  1.0000
  Au  Au342     1.0  0.54666  0.72312  0.82325  1.0000
  Au  Au343     1.0  0.61664  0.72312  0.78284  1.0000
  Au  Au344     1.0  0.56999  0.76354  0.78284  1.0000
  Au  Au345     1.0  0.59331  0.68269  0.82325  1.0000
  Au  Au346     1.0  0.61664  0.72312  0.86365  1.0000
  Au  Au347     1.0  0.33670  0.96568  0.45959  1.0000
  Au  Au348     1.0  0.31337  0.92525  0.50000  1.0000
  Au  Au349     1.0  0.31337  0.92525  0.58081  1.0000
  Au  Au350     1.0  0.38336  0.92525  0.54041  1.0000
  Au  Au351     1.0  0.33670  0.96568  0.54041  1.0000
  Au  Au352     1.0  0.36003  0.88482  0.58081  1.0000
  Au  Au353     1.0  0.36003  0.88482  0.66162  1.0000
  Au  Au354     1.0  0.43001  0.88482  0.62122  1.0000
  Au  Au355     1.0  0.38336  0.92525  0.62122  1.0000
  Au  Au356     1.0  0.40669  0.84440  0.66162  1.0000
  Au  Au357     1.0  0.40669  0.84440  0.74244  1.0000
  Au  Au358     1.0  0.47667  0.84440  0.70203  1.0000
  Au  Au359     1.0  0.43001  0.88482  0.70203  1.0000
  Au  Au360     1.0  0.45334  0.80397  0.74244  1.0000
  Au  Au361     1.0  0.45334  0.80397  0.82325  1.0000
  Au  Au362     1.0  0.52333  0.80397  0.78284  1.0000
  Au  Au363     1.0  0.47667  0.84440  0.78284  1.0000
  Au  Au364     1.0  0.50000  0.76354  0.82325  1.0000
  Au  Au365     1.0  0.56999  0.76354  0.86365  1.0000
  Au  Au366     1.0  0.52333  0.80397  0.86365  1.0000
  Au  Au367     1.0  0.33670  0.96568  0.62122  1.0000
  Au  Au368     1.0  0.31337  0.92525  0.66162  1.0000
  Au  Au369     1.0  0.38336  0.92525  0.70203  1.0000
  Au  Au370     1.0  0.36003  0.88482  0.74244  1.0000
  Au  Au371     1.0  0.43001  0.88482  0.78284  1.0000
  Au  Au372     1.0  0.40669  0.84440  0.82325  1.0000
  Au  Au373     1.0  0.47667  0.84440  0.86365  1.0000
  Au  Au374     1.0  0.63997  0.76354  0.17675  1.0000
  Au  Au375     1.0  0.68663  0.72312  0.17675  1.0000
  Au  Au376     1.0  0.68663  0.72312  0.25756  1.0000
  Au  Au377     1.0  0.75661  0.72312  0.21716  1.0000
  Au  Au378     1.0  0.70996  0.76354  0.21716  1.0000
  Au  Au379     1.0  0.73328  0.68269  0.25756  1.0000
  Au  Au380     1.0  0.73328  0.68269  0.33838  1.0000
  Au  Au381     1.0  0.80327  0.68269  0.29797  1.0000
  Au  Au382     1.0  0.75661  0.72312  0.29797  1.0000
  Au  Au383     1.0  0.77994  0.64227  0.33838  1.0000
  Au  Au384     1.0  0.77994  0.64227  0.41919  1.0000
  Au  Au385     1.0  0.80327  0.68269  0.37878  1.0000
  Au  Au386     1.0  0.54666  0.84440  0.17675  1.0000
  Au  Au387     1.0  0.59331  0.80397  0.17675  1.0000
  Au  Au388     1.0  0.59331  0.80397  0.25756  1.0000
  Au  Au389     1.0  0.66330  0.80397  0.21716  1.0000
  Au  Au390     1.0  0.61664  0.84440  0.21716  1.0000
  Au  Au391     1.0  0.63997  0.76354  0.25756  1.0000
  Au  Au392     1.0  0.63997  0.76354  0.33838  1.0000
  Au  Au393     1.0  0.70996  0.76354  0.29797  1.0000
  Au  Au394     1.0  0.66330  0.80397  0.29797  1.0000
  Au  Au395     1.0  0.68663  0.72312  0.33838  1.0000
  Au  Au396     1.0  0.68663  0.72312  0.41919  1.0000
  Au  Au397     1.0  0.75661  0.72312  0.37878  1.0000
  Au  Au398     1.0  0.70996  0.76354  0.37878  1.0000
  Au  Au399     1.0  0.73328  0.68269  0.41919  1.0000
  Au  Au400     1.0  0.73328  0.68269  0.50000  1.0000
  Au  Au401     1.0  0.80327  0.68269  0.45959  1.0000
  Au  Au402     1.0  0.75661  0.72312  0.45959  1.0000
  Au  Au403     1.0  0.77994  0.64227  0.50000  1.0000
  Au  Au404     1.0  0.77994  0.64227  0.58081  1.0000
  Au  Au405     1.0  0.80327  0.68269  0.54041  1.0000
  Au  Au406     1.0  0.50000  0.88482  0.17675  1.0000
  Au  Au407     1.0  0.50000  0.88482  0.25756  1.0000
  Au  Au408     1.0  0.56999  0.88482  0.21716  1.0000
  Au  Au409     1.0  0.52333  0.92525  0.21716  1.0000
  Au  Au410     1.0  0.54666  0.84440  0.25756  1.0000
  Au  Au411     1.0  0.54666  0.84440  0.33838  1.0000
  Au  Au412     1.0  0.61664  0.84440  0.29797  1.0000
  Au  Au413     1.0  0.56999  0.88482  0.29797  1.0000
  Au  Au414     1.0  0.59331  0.80397  0.33838  1.0000
  Au  Au415     1.0  0.59331  0.80397  0.41919  1.0000
  Au  Au416     1.0  0.66330  0.80397  0.37878  1.0000
  Au  Au417     1.0  0.61664  0.84440  0.37878  1.0000
  Au  Au418     1.0  0.63997  0.76354  0.41919  1.0000
  Au  Au419     1.0  0.63997  0.76354  0.50000  1.0000
  Au  Au420     1.0  0.70996  0.76354  0.45959  1.0000
  Au  Au421     1.0  0.66330  0.80397  0.45959  1.0000
  Au  Au422     1.0  0.68663  0.72312  0.50000  1.0000
  Au  Au423     1.0  0.68663  0.72312  0.58081  1.0000
  Au  Au424     1.0  0.75661  0.72312  0.54041  1.0000
  Au  Au425     1.0  0.70996  0.76354  0.54041  1.0000
  Au  Au426     1.0  0.73328  0.68269  0.58081  1.0000
  Au  Au427     1.0  0.73328  0.68269  0.66162  1.0000
  Au  Au428     1.0  0.80327  0.68269  0.62122  1.0000
  Au  Au429     1.0  0.75661  0.72312  0.62122  1.0000
  Au  Au430     1.0  0.77994  0.64227  0.66162  1.0000
  Au  Au431     1.0  0.80327  0.68269  0.70203  1.0000
  Au  Au432     1.0  0.45334  0.92525  0.25756  1.0000
  Au  Au433     1.0  0.45334  0.92525  0.33838  1.0000
  Au  Au434     1.0  0.52333  0.92525  0.29797  1.0000
  Au  Au435     1.0  0.47667  0.96568  0.29797  1.0000
  Au  Au436     1.0  0.50000  0.88482  0.33838  1.0000
  Au  Au437     1.0  0.50000  0.88482  0.41919  1.0000
  Au  Au438     1.0  0.56999  0.88482  0.37878  1.0000
  Au  Au439     1.0  0.52333  0.92525  0.37878  1.0000
  Au  Au440     1.0  0.54666  0.84440  0.41919  1.0000
  Au  Au441     1.0  0.54666  0.84440  0.50000  1.0000
  Au  Au442     1.0  0.61664  0.84440  0.45959  1.0000
  Au  Au443     1.0  0.56999  0.88482  0.45959  1.0000
  Au  Au444     1.0  0.59331  0.80397  0.50000  1.0000
  Au  Au445     1.0  0.59331  0.80397  0.58081  1.0000
  Au  Au446     1.0  0.66330  0.80397  0.54041  1.0000
  Au  Au447     1.0  0.61664  0.84440  0.54041  1.0000
  Au  Au448     1.0  0.63997  0.76354  0.58081  1.0000
  Au  Au449     1.0  0.63997  0.76354  0.66162  1.0000
  Au  Au450     1.0  0.70996  0.76354  0.62122  1.0000
  Au  Au451     1.0  0.66330  0.80397  0.62122  1.0000
  Au  Au452     1.0  0.68663  0.72312  0.66162  1.0000
  Au  Au453     1.0  0.68663  0.72312  0.74244  1.0000
  Au  Au454     1.0  0.75661  0.72312  0.70203  1.0000
  Au  Au455     1.0  0.70996  0.76354  0.70203  1.0000
  Au  Au456     1.0  0.73328  0.68269  0.74244  1.0000
  Au  Au457     1.0  0.75661  0.72312  0.78284  1.0000
  Au  Au458     1.0  0.40669  0.96568  0.33838  1.0000
  Au  Au459     1.0  0.40669  0.96568  0.41919  1.0000
  Au  Au460     1.0  0.47667  0.96568  0.37878  1.0000
  Au  Au461     1.0  0.45334  0.92525  0.41919  1.0000
  Au  Au462     1.0  0.45334  0.92525  0.50000  1.0000
  Au  Au463     1.0  0.52333  0.92525  0.45959  1.0000
  Au  Au464     1.0  0.47667  0.96568  0.45959  1.0000
  Au  Au465     1.0  0.50000  0.88482  0.50000  1.0000
  Au  Au466     1.0  0.50000  0.88482  0.58081  1.0000
  Au  Au467     1.0  0.56999  0.88482  0.54041  1.0000
  Au  Au468     1.0  0.52333  0.92525  0.54041  1.0000
  Au  Au469     1.0  0.54666  0.84440  0.58081  1.0000
  Au  Au470     1.0  0.54666  0.84440  0.66162  1.0000
  Au  Au471     1.0  0.61664  0.84440  0.62122  1.0000
  Au  Au472     1.0  0.56999  0.88482  0.62122  1.0000
  Au  Au473     1.0  0.59331  0.80397  0.66162  1.0000
  Au  Au474     1.0  0.59331  0.80397  0.74244  1.0000
  Au  Au475     1.0  0.66330  0.80397  0.70203  1.0000
  Au  Au476     1.0  0.61664  0.84440  0.70203  1.0000
  Au  Au477     1.0  0.63997  0.76354  0.74244  1.0000
  Au  Au478     1.0  0.63997  0.76354  0.82325  1.0000
  Au  Au479     1.0  0.70996  0.76354  0.78284  1.0000
  Au  Au480     1.0  0.66330  0.80397  0.78284  1.0000
  Au  Au481     1.0  0.68663  0.72312  0.82325  1.0000
  Au  Au482     1.0  0.40669  0.96568  0.50000  1.0000
  Au  Au483     1.0  0.40669  0.96568  0.58081  1.0000
  Au  Au484     1.0  0.47667  0.96568  0.54041  1.0000
  Au  Au485     1.0  0.45334  0.92525  0.58081  1.0000
  Au  Au486     1.0  0.45334  0.92525  0.66162  1.0000
  Au  Au487     1.0  0.52333  0.92525  0.62122  1.0000
  Au  Au488     1.0  0.47667  0.96568  0.62122  1.0000
  Au  Au489     1.0  0.50000  0.88482  0.66162  1.0000
  Au  Au490     1.0  0.50000  0.88482  0.74244  1.0000
  Au  Au491     1.0  0.56999  0.88482  0.70203  1.0000
  Au  Au492     1.0  0.52333  0.92525  0.70203  1.0000
  Au  Au493     1.0  0.54666  0.84440  0.74244  1.0000
  Au  Au494     1.0  0.54666  0.84440  0.82325  1.0000
  Au  Au495     1.0  0.61664  0.84440  0.78284  1.0000
  Au  Au496     1.0  0.56999  0.88482  0.78284  1.0000
  Au  Au497     1.0  0.59331  0.80397  0.82325  1.0000
  Au  Au498     1.0  0.40669  0.96568  0.66162  1.0000
  Au  Au499     1.0  0.47667  0.96568  0.70203  1.0000
  Au  Au500     1.0  0.45334  0.92525  0.74244  1.0000
  Au  Au501     1.0  0.52333  0.92525  0.78284  1.0000
  Au  Au502     1.0  0.50000  0.88482  0.82325  1.0000
  Au  Au503     1.0  0.77994  0.76354  0.25756  1.0000
  Au  Au504     1.0  0.82660  0.72312  0.33838  1.0000
  Au  Au505     1.0  0.68663  0.84440  0.25756  1.0000
  Au  Au506     1.0  0.73328  0.80397  0.25756  1.0000
  Au  Au507     1.0  0.73328  0.80397  0.33838  1.0000
  Au  Au508     1.0  0.80327  0.80397  0.29797  1.0000
  Au  Au509     1.0  0.75661  0.84440  0.29797  1.0000
  Au  Au510     1.0  0.77994  0.76354  0.33838  1.0000
  Au  Au511     1.0  0.77994  0.76354  0.41919  1.0000
  Au  Au512     1.0  0.84993  0.76354  0.37878  1.0000
  Au  Au513     1.0  0.80327  0.80397  0.37878  1.0000
  Au  Au514     1.0  0.82660  0.72312  0.41919  1.0000
  Au  Au515     1.0  0.82660  0.72312  0.50000  1.0000
  Au  Au516     1.0  0.84993  0.76354  0.45959  1.0000
  Au  Au517     1.0  0.59331  0.92525  0.25756  1.0000
  Au  Au518     1.0  0.63997  0.88482  0.25756  1.0000
  Au  Au519     1.0  0.63997  0.88482  0.33838  1.0000
  Au  Au520     1.0  0.70996  0.88482  0.29797  1.0000
  Au  Au521     1.0  0.66330  0.92525  0.29797  1.0000
  Au  Au522     1.0  0.68663  0.84440  0.33838  1.0000
  Au  Au523     1.0  0.68663  0.84440  0.41919  1.0000
  Au  Au524     1.0  0.75661  0.84440  0.37878  1.0000
  Au  Au525     1.0  0.70996  0.88482  0.37878  1.0000
  Au  Au526     1.0  0.73328  0.80397  0.41919  1.0000
  Au  Au527     1.0  0.73328  0.80397  0.50000  1.0000
  Au  Au528     1.0  0.80327  0.80397  0.45959  1.0000
  Au  Au529     1.0  0.75661  0.84440  0.45959  1.0000
  Au  Au530     1.0  0.77994  0.76354  0.50000  1.0000
  Au  Au531     1.0  0.77994  0.76354  0.58081  1.0000
  Au  Au532     1.0  0.84993  0.76354  0.54041  1.0000
  Au  Au533     1.0  0.80327  0.80397  0.54041  1.0000
  Au  Au534     1.0  0.82660  0.72312  0.58081  1.0000
  Au  Au535     1.0  0.82660  0.72312  0.66162  1.0000
  Au  Au536     1.0  0.84993  0.76354  0.62122  1.0000
  Au  Au537     1.0  0.54666  0.96568  0.33838  1.0000
  Au  Au538     1.0  0.59331  0.92525  0.33838  1.0000
  Au  Au539     1.0  0.59331  0.92525  0.41919  1.0000
  Au  Au540     1.0  0.66330  0.92525  0.37878  1.0000
  Au  Au541     1.0  0.61664  0.96568  0.37878  1.0000
  Au  Au542     1.0  0.63997  0.88482  0.41919  1.0000
  Au  Au543     1.0  0.63997  0.88482  0.50000  1.0000
  Au  Au544     1.0  0.70996  0.88482  0.45959  1.0000
  Au  Au545     1.0  0.66330  0.92525  0.45959  1.0000
  Au  Au546     1.0  0.68663  0.84440  0.50000  1.0000
  Au  Au547     1.0  0.68663  0.84440  0.58081  1.0000
  Au  Au548     1.0  0.75661  0.84440  0.54041  1.0000
  Au  Au549     1.0  0.70996  0.88482  0.54041  1.0000
  Au  Au550     1.0  0.73328  0.80397  0.58081  1.0000
  Au  Au551     1.0  0.73328  0.80397  0.66162  1.0000
  Au  Au552     1.0  0.80327  0.80397  0.62122  1.0000
  Au  Au553     1.0  0.75661  0.84440  0.62122  1.0000
  Au  Au554     1.0  0.77994  0.76354  0.66162  1.0000
  Au  Au555     1.0  0.77994  0.76354  0.74244  1.0000
  Au  Au556     1.0  0.80327  0.80397  0.70203  1.0000
  Au  Au557     1.0  0.54666  0.96568  0.41919  1.0000
  Au  Au558     1.0  0.54666  0.96568  0.50000  1.0000
  Au  Au559     1.0  0.61664  0.96568  0.45959  1.0000
  Au  Au560     1.0  0.59331  0.92525  0.50000  1.0000
  Au  Au561     1.0  0.59331  0.92525  0.58081  1.0000
  Au  Au562     1.0  0.66330  0.92525  0.54041  1.0000
  Au  Au563     1.0  0.61664  0.96568  0.54041  1.0000
  Au  Au564     1.0  0.63997  0.88482  0.58081  1.0000
  Au  Au565     1.0  0.63997  0.88482  0.66162  1.0000
  Au  Au566     1.0  0.70996  0.88482  0.62122  1.0000
  Au  Au567     1.0  0.66330  0.92525  0.62122  1.0000
  Au  Au568     1.0  0.68663  0.84440  0.66162  1.0000
  Au  Au569     1.0  0.68663  0.84440  0.74244  1.0000
  Au  Au570     1.0  0.75661  0.84440  0.70203  1.0000
  Au  Au571     1.0  0.70996  0.88482  0.70203  1.0000
  Au  Au572     1.0  0.73328  0.80397  0.74244  1.0000
  Au  Au573     1.0  0.54666  0.96568  0.58081  1.0000
  Au  Au574     1.0  0.54666  0.96568  0.66162  1.0000
  Au  Au575     1.0  0.61664  0.96568  0.62122  1.0000
  Au  Au576     1.0  0.59331  0.92525  0.66162  1.0000
  Au  Au577     1.0  0.59331  0.92525  0.74244  1.0000
  Au  Au578     1.0  0.66330  0.92525  0.70203  1.0000
  Au  Au579     1.0  0.63997  0.88482  0.74244  1.0000
  Au  Au580     1.0  0.82660  0.84440  0.33838  1.0000
  Au  Au581     1.0  0.87326  0.80397  0.41919  1.0000
  Au  Au582     1.0  0.73328  0.92525  0.33838  1.0000
  Au  Au583     1.0  0.77994  0.88482  0.33838  1.0000
  Au  Au584     1.0  0.77994  0.88482  0.41919  1.0000
  Au  Au585     1.0  0.82660  0.84440  0.41919  1.0000
  Au  Au586     1.0  0.82660  0.84440  0.50000  1.0000
  Au  Au587     1.0  0.87326  0.80397  0.50000  1.0000
  Au  Au588     1.0  0.87326  0.80397  0.58081  1.0000
  Au  Au589     1.0  0.68663  0.96568  0.41919  1.0000
  Au  Au590     1.0  0.73328  0.92525  0.41919  1.0000
  Au  Au591     1.0  0.73328  0.92525  0.50000  1.0000
  Au  Au592     1.0  0.77994  0.88482  0.50000  1.0000
  Au  Au593     1.0  0.77994  0.88482  0.58081  1.0000
  Au  Au594     1.0  0.82660  0.84440  0.58081  1.0000
  Au  Au595     1.0  0.82660  0.84440  0.66162  1.0000
  Au  Au596     1.0  0.68663  0.96568  0.50000  1.0000
  Au  Au597     1.0  0.68663  0.96568  0.58081  1.0000
  Au  Au598     1.0  0.73328  0.92525  0.58081  1.0000
  Au  Au599     1.0  0.73328  0.92525  0.66162  1.0000
  Au  Au600     1.0  0.77994  0.88482  0.66162  1.0000
