data_image0
_chemical_formula_structural       C1568Au155
_chemical_formula_sum              "C1568 Au155"
_cell_length_a       24.99
_cell_length_b       27.841
_cell_length_c       24.99
_cell_angle_alpha    90
_cell_angle_beta     90
_cell_angle_gamma    90

_space_group_name_H-M_alt    "P 1"
_space_group_IT_number       1

loop_
  _space_group_symop_operation_xyz
  'x, y, z'

loop_
  _atom_site_type_symbol
  _atom_site_label
  _atom_site_symmetry_multiplicity
  _atom_site_fract_x
  _atom_site_fract_y
  _atom_site_fract_z
  _atom_site_occupancy
  C   C1        1.0  0.98300  0.57436  0.98796  1.0000
  C   C2        1.0  0.03983  0.10009  0.03766  1.0000
  C   C3        1.0  0.01299  0.14745  0.07875  1.0000
  C   C4        1.0  0.02877  0.15720  0.09459  1.0000
  C   C5        1.0  0.06613  0.58367  0.05645  1.0000
  C   C6        1.0  0.08966  0.10775  0.07862  1.0000
  C   C7        1.0  0.06870  0.14147  0.98482  1.0000
  C   C8        1.0  0.09000  0.15712  0.04570  1.0000
  C   C9        1.0  0.99800  0.55853  0.13633  1.0000
  C   C10       1.0  0.05133  0.11713  0.18828  1.0000
  C   C11       1.0  0.99633  0.11007  0.21690  1.0000
  C   C12       1.0  0.03300  0.16870  0.27376  1.0000
  C   C13       1.0  0.07426  0.07529  0.22361  1.0000
  C   C14       1.0  0.10319  0.09434  0.23864  1.0000
  C   C15       1.0  0.08324  0.14256  0.13532  1.0000
  C   C16       1.0  0.12490  0.17019  0.15792  1.0000
  C   C17       1.0  0.00933  0.58245  0.26524  1.0000
  C   C18       1.0  0.04366  0.09876  0.31538  1.0000
  C   C19       1.0  0.00909  0.10527  0.33746  1.0000
  C   C20       1.0  0.02917  0.17109  0.38261  1.0000
  C   C21       1.0  0.05607  0.56983  0.35534  1.0000
  C   C22       1.0  0.11754  0.08348  0.36081  1.0000
  C   C23       1.0  0.06685  0.13030  0.27171  1.0000
  C   C24       1.0  0.11657  0.17877  0.31274  1.0000
  C   C25       1.0  0.99469  0.07935  0.42196  1.0000
  C   C26       1.0  0.01410  0.10259  0.45035  1.0000
  C   C27       1.0  0.00501  0.12860  0.49709  1.0000
  C   C28       1.0  0.04372  0.16592  0.52595  1.0000
  C   C29       1.0  0.05592  0.09527  0.51705  1.0000
  C   C30       1.0  0.08398  0.08897  0.54471  1.0000
  C   C31       1.0  0.06236  0.13579  0.44111  1.0000
  C   C32       1.0  0.10913  0.16585  0.45699  1.0000
  C   C33       1.0  0.99867  0.07682  0.59815  1.0000
  C   C34       1.0  0.05212  0.10077  0.62126  1.0000
  C   C35       1.0  0.00180  0.11510  0.64121  1.0000
  C   C36       1.0  0.05104  0.15939  0.69299  1.0000
  C   C37       1.0  0.06670  0.07184  0.62451  1.0000
  C   C38       1.0  0.13904  0.10980  0.69411  1.0000
  C   C39       1.0  0.06445  0.11535  0.59009  1.0000
  C   C40       1.0  0.09618  0.19049  0.60451  1.0000
  C   C41       1.0  0.02503  0.57430  0.68711  1.0000
  C   C42       1.0  0.04647  0.10259  0.74996  1.0000
  C   C43       1.0  0.01616  0.12339  0.76577  1.0000
  C   C44       1.0  0.01771  0.14438  0.79356  1.0000
  C   C45       1.0  0.05163  0.57091  0.77864  1.0000
  C   C46       1.0  0.08843  0.10146  0.83269  1.0000
  C   C47       1.0  0.06755  0.14083  0.69954  1.0000
  C   C48       1.0  0.11080  0.17323  0.73894  1.0000
  C   C49       1.0  0.97512  0.58047  0.85533  1.0000
  C   C50       1.0  0.05577  0.09602  0.91575  1.0000
  C   C51       1.0  0.96086  0.12913  0.91845  1.0000
  C   C52       1.0  0.02717  0.15786  0.96070  1.0000
  C   C53       1.0  0.09360  0.57968  0.94379  1.0000
  C   C54       1.0  0.10273  0.10235  0.92510  1.0000
  C   C55       1.0  0.06976  0.14117  0.83680  1.0000
  C   C56       1.0  0.09481  0.15323  0.92205  1.0000
  C   C57       1.0  0.98199  0.18707  0.95559  1.0000
  C   C58       1.0  0.00856  0.23173  0.01308  1.0000
  C   C59       1.0  0.95479  0.25693  0.06971  1.0000
  C   C60       1.0  0.03648  0.29793  0.09459  1.0000
  C   C61       1.0  0.11070  0.18913  0.07483  1.0000
  C   C62       1.0  0.08451  0.22029  0.08061  1.0000
  C   C63       1.0  0.07138  0.25539  0.98145  1.0000
  C   C64       1.0  0.07338  0.30044  0.04488  1.0000
  C   C65       1.0  0.00946  0.19562  0.15023  1.0000
  C   C66       1.0  0.04645  0.23596  0.19736  1.0000
  C   C67       1.0  0.99459  0.26404  0.18835  1.0000
  C   C68       1.0  0.06480  0.28324  0.25237  1.0000
  C   C69       1.0  0.07853  0.18642  0.21128  1.0000
  C   C70       1.0  0.11533  0.22847  0.24320  1.0000
  C   C71       1.0  0.06446  0.25223  0.13822  1.0000
  C   C72       1.0  0.11071  0.30033  0.19331  1.0000
  C   C73       1.0  0.99892  0.19105  0.29675  1.0000
  C   C74       1.0  0.03930  0.24393  0.32262  1.0000
  C   C75       1.0  0.00651  0.26775  0.36671  1.0000
  C   C76       1.0  0.01934  0.29308  0.39410  1.0000
  C   C77       1.0  0.09609  0.19740  0.36268  1.0000
  C   C78       1.0  0.10298  0.20224  0.41039  1.0000
  C   C79       1.0  0.08031  0.27959  0.26356  1.0000
  C   C80       1.0  0.11002  0.29699  0.29613  1.0000
  C   C81       1.0  0.00568  0.19011  0.43464  1.0000
  C   C82       1.0  0.00899  0.21842  0.45206  1.0000
  C   C83       1.0  0.97535  0.26330  0.51854  1.0000
  C   C84       1.0  0.03401  0.30322  0.55674  1.0000
  C   C85       1.0  0.07848  0.19335  0.46937  1.0000
  C   C86       1.0  0.11113  0.22604  0.52738  1.0000
  C   C87       1.0  0.08116  0.27010  0.40332  1.0000
  C   C88       1.0  0.10951  0.29025  0.47600  1.0000
  C   C89       1.0  0.99837  0.21121  0.56002  1.0000
  C   C90       1.0  0.02834  0.22317  0.60308  1.0000
  C   C91       1.0  0.99502  0.27895  0.62657  1.0000
  C   C92       1.0  0.03571  0.27872  0.65527  1.0000
  C   C93       1.0  0.06106  0.17789  0.64424  1.0000
  C   C94       1.0  0.09467  0.22330  0.68419  1.0000
  C   C95       1.0  0.09388  0.25539  0.54028  1.0000
  C   C96       1.0  0.09981  0.29467  0.62326  1.0000
  C   C97       1.0  0.99816  0.18655  0.72727  1.0000
  C   C98       1.0  0.05119  0.22820  0.75340  1.0000
  C   C99       1.0  0.00454  0.29842  0.77567  1.0000
  C   C100      1.0  0.02857  0.29380  0.83164  1.0000
  C   C101      1.0  0.06614  0.20609  0.79877  1.0000
  C   C102      1.0  0.13665  0.22907  0.81607  1.0000
  C   C103      1.0  0.06576  0.23786  0.69571  1.0000
  C   C104      1.0  0.10888  0.29745  0.78897  1.0000
  C   C105      1.0  0.01839  0.20981  0.87906  1.0000
  C   C106      1.0  0.02529  0.22350  0.88090  1.0000
  C   C107      1.0  0.99703  0.29287  0.92404  1.0000
  C   C108      1.0  0.02539  0.29601  0.97661  1.0000
  C   C109      1.0  0.07830  0.21104  0.90976  1.0000
  C   C110      1.0  0.09352  0.22826  0.96537  1.0000
  C   C111      1.0  0.09194  0.24613  0.86667  1.0000
  C   C112      1.0  0.10333  0.30404  0.88256  1.0000
  C   C113      1.0  0.97842  0.34392  0.00421  1.0000
  C   C114      1.0  0.00576  0.36934  0.02007  1.0000
  C   C115      1.0  0.99814  0.39159  0.05054  1.0000
  C   C116      1.0  0.05241  0.41665  0.13177  1.0000
  C   C117      1.0  0.07856  0.33473  0.07526  1.0000
  C   C118      1.0  0.13706  0.34569  0.09493  1.0000
  C   C119      1.0  0.06105  0.40764  0.01587  1.0000
  C   C120      1.0  0.10824  0.42759  0.01026  1.0000
  C   C121      1.0  0.02257  0.32471  0.14453  1.0000
  C   C122      1.0  0.03091  0.36884  0.17511  1.0000
  C   C123      1.0  0.00170  0.39314  0.20636  1.0000
  C   C124      1.0  0.02620  0.42942  0.25579  1.0000
  C   C125      1.0  0.08263  0.34785  0.19524  1.0000
  C   C126      1.0  0.07878  0.35433  0.26948  1.0000
  C   C127      1.0  0.07068  0.36687  0.16728  1.0000
  C   C128      1.0  0.11479  0.40342  0.16574  1.0000
  C   C129      1.0  0.00147  0.32022  0.28358  1.0000
  C   C130      1.0  0.04363  0.36001  0.34278  1.0000
  C   C131      1.0  0.99702  0.41258  0.34811  1.0000
  C   C132      1.0  0.01773  0.39513  0.37947  1.0000
  C   C133      1.0  0.07279  0.34110  0.30429  1.0000
  C   C134      1.0  0.10645  0.34650  0.40366  1.0000
  C   C135      1.0  0.06346  0.39610  0.31335  1.0000
  C   C136      1.0  0.10875  0.42168  0.33642  1.0000
  C   C137      1.0  0.00440  0.32507  0.40380  1.0000
  C   C138      1.0  0.03015  0.33691  0.46724  1.0000
  C   C139      1.0  0.00864  0.39274  0.52811  1.0000
  C   C140      1.0  0.01801  0.42956  0.53611  1.0000
  C   C141      1.0  0.05312  0.33461  0.51248  1.0000
  C   C142      1.0  0.12413  0.35748  0.54526  1.0000
  C   C143      1.0  0.06109  0.41233  0.45590  1.0000
  C   C144      1.0  0.10940  0.42711  0.44787  1.0000
  C   C145      1.0  0.00029  0.32281  0.57488  1.0000
  C   C146      1.0  0.01411  0.38433  0.61006  1.0000
  C   C147      1.0  0.01663  0.39887  0.63850  1.0000
  C   C148      1.0  0.06523  0.43951  0.65590  1.0000
  C   C149      1.0  0.07118  0.32481  0.63065  1.0000
  C   C150      1.0  0.14035  0.34329  0.70201  1.0000
  C   C151      1.0  0.04520  0.41098  0.56346  1.0000
  C   C152      1.0  0.07286  0.42797  0.61467  1.0000
  C   C153      1.0  0.98622  0.34299  0.68867  1.0000
  C   C154      1.0  0.05322  0.36828  0.77772  1.0000
  C   C155      1.0  0.99416  0.40441  0.77706  1.0000
  C   C156      1.0  0.04863  0.42780  0.83406  1.0000
  C   C157      1.0  0.05212  0.33499  0.79174  1.0000
  C   C158      1.0  0.13060  0.35566  0.81903  1.0000
  C   C159      1.0  0.08169  0.39963  0.67600  1.0000
  C   C160      1.0  0.10319  0.43623  0.74490  1.0000
  C   C161      1.0  0.97188  0.32341  0.85700  1.0000
  C   C162      1.0  0.02114  0.36127  0.87616  1.0000
  C   C163      1.0  0.99713  0.39324  0.95586  1.0000
  C   C164      1.0  0.04118  0.44164  0.96767  1.0000
  C   C165      1.0  0.05405  0.31205  0.94070  1.0000
  C   C166      1.0  0.08262  0.33804  0.97812  1.0000
  C   C167      1.0  0.05890  0.37618  0.88237  1.0000
  C   C168      1.0  0.09371  0.43242  0.89225  1.0000
  C   C169      1.0  0.00195  0.45667  0.01534  1.0000
  C   C170      1.0  0.05830  0.47528  0.05899  1.0000
  C   C171      1.0  0.99657  0.51781  0.08178  1.0000
  C   C172      1.0  0.02726  0.53950  0.13019  1.0000
  C   C173      1.0  0.06244  0.42690  0.02088  1.0000
  C   C174      1.0  0.11190  0.48600  0.13345  1.0000
  C   C175      1.0  0.05337  0.50344  0.00038  1.0000
  C   C176      1.0  0.12744  0.57159  0.03612  1.0000
  C   C177      1.0  0.99004  0.45793  0.16608  1.0000
  C   C178      1.0  0.03444  0.48203  0.18539  1.0000
  C   C179      1.0  0.00306  0.52182  0.24613  1.0000
  C   C180      1.0  0.04601  0.55400  0.24476  1.0000
  C   C181      1.0  0.06742  0.46325  0.22553  1.0000
  C   C182      1.0  0.09764  0.48117  0.24603  1.0000
  C   C183      1.0  0.05727  0.53548  0.12929  1.0000
  C   C184      1.0  0.10969  0.56605  0.16373  1.0000
  C   C185      1.0  0.98716  0.45441  0.29364  1.0000
  C   C186      1.0  0.03875  0.48912  0.34080  1.0000
  C   C187      1.0  0.99149  0.51118  0.36735  1.0000
  C   C188      1.0  0.03776  0.56556  0.40968  1.0000
  C   C189      1.0  0.05491  0.42769  0.36589  1.0000
  C   C190      1.0  0.10673  0.49231  0.37931  1.0000
  C   C191      1.0  0.08393  0.51738  0.29441  1.0000
  C   C192      1.0  0.12136  0.55409  0.32034  1.0000
  C   C193      1.0  0.98971  0.49338  0.40794  1.0000
  C   C194      1.0  0.04680  0.46780  0.45195  1.0000
  C   C195      1.0  0.02180  0.51046  0.51650  1.0000
  C   C196      1.0  0.03012  0.56463  0.51429  1.0000
  C   C197      1.0  0.05426  0.47637  0.50527  1.0000
  C   C198      1.0  0.09142  0.48167  0.49317  1.0000
  C   C199      1.0  0.06652  0.50198  0.41366  1.0000
  C   C200      1.0  0.13008  0.54470  0.45454  1.0000
  C   C201      1.0  0.98277  0.46519  0.57965  1.0000
  C   C202      1.0  0.02254  0.46511  0.60358  1.0000
  C   C203      1.0  0.00162  0.49262  0.66005  1.0000
  C   C204      1.0  0.02131  0.55330  0.66614  1.0000
  C   C205      1.0  0.05923  0.46852  0.64383  1.0000
  C   C206      1.0  0.08338  0.49250  0.69074  1.0000
  C   C207      1.0  0.06831  0.53465  0.55671  1.0000
  C   C208      1.0  0.12121  0.55489  0.60919  1.0000
  C   C209      1.0  0.02055  0.46533  0.70895  1.0000
  C   C210      1.0  0.04300  0.47847  0.75731  1.0000
  C   C211      1.0  0.01971  0.53658  0.77442  1.0000
  C   C212      1.0  0.03158  0.56075  0.82996  1.0000
  C   C213      1.0  0.05946  0.45869  0.79118  1.0000
  C   C214      1.0  0.13007  0.49101  0.81970  1.0000
  C   C215      1.0  0.05431  0.50087  0.72793  1.0000
  C   C216      1.0  0.10768  0.54568  0.76443  1.0000
  C   C217      1.0  0.00690  0.45422  0.86767  1.0000
  C   C218      1.0  0.02893  0.49768  0.89826  1.0000
  C   C219      1.0  0.99297  0.51449  0.91686  1.0000
  C   C220      1.0  0.04904  0.55012  0.94821  1.0000
  C   C221      1.0  0.08206  0.46243  0.92835  1.0000
  C   C222      1.0  0.11001  0.48277  0.95481  1.0000
  C   C223      1.0  0.08414  0.50435  0.83309  1.0000
  C   C224      1.0  0.08616  0.56369  0.87584  1.0000
  C   C225      1.0  0.13795  0.57381  0.98365  1.0000
  C   C226      1.0  0.17521  0.10112  0.06488  1.0000
  C   C227      1.0  0.13690  0.13847  0.10164  1.0000
  C   C228      1.0  0.19963  0.17566  0.12045  1.0000
  C   C229      1.0  0.21334  0.08254  0.07522  1.0000
  C   C230      1.0  0.23709  0.12705  0.10679  1.0000
  C   C231      1.0  0.22279  0.12840  0.98123  1.0000
  C   C232      1.0  0.22276  0.12204  0.04465  1.0000
  C   C233      1.0  0.11581  0.57672  0.14242  1.0000
  C   C234      1.0  0.15533  0.09597  0.18385  1.0000
  C   C235      1.0  0.13868  0.14300  0.17310  1.0000
  C   C236      1.0  0.18707  0.17896  0.22891  1.0000
  C   C237      1.0  0.22553  0.57852  0.20997  1.0000
  C   C238      1.0  0.25803  0.08264  0.26215  1.0000
  C   C239      1.0  0.20270  0.14588  0.14122  1.0000
  C   C240      1.0  0.25377  0.15587  0.17749  1.0000
  C   C241      1.0  0.12454  0.57446  0.26363  1.0000
  C   C242      1.0  0.17700  0.08936  0.35681  1.0000
  C   C243      1.0  0.12878  0.10522  0.37358  1.0000
  C   C244      1.0  0.17228  0.17383  0.39310  1.0000
  C   C245      1.0  0.20154  0.57555  0.33987  1.0000
  C   C246      1.0  0.27101  0.11191  0.37194  1.0000
  C   C247      1.0  0.22853  0.14293  0.25993  1.0000
  C   C248      1.0  0.23661  0.17240  0.32490  1.0000
  C   C249      1.0  0.17346  0.58354  0.44223  1.0000
  C   C250      1.0  0.17022  0.10114  0.46346  1.0000
  C   C251      1.0  0.14098  0.13755  0.50032  1.0000
  C   C252      1.0  0.15257  0.17636  0.51726  1.0000
  C   C253      1.0  0.22593  0.07947  0.50968  1.0000
  C   C254      1.0  0.23994  0.10668  0.54589  1.0000
  C   C255      1.0  0.20525  0.11445  0.45418  1.0000
  C   C256      1.0  0.24557  0.16011  0.44816  1.0000
  C   C257      1.0  0.12312  0.54669  0.55411  1.0000
  C   C258      1.0  0.16113  0.09081  0.63622  1.0000
  C   C259      1.0  0.14041  0.12959  0.64343  1.0000
  C   C260      1.0  0.16612  0.18514  0.69719  1.0000
  C   C261      1.0  0.20231  0.08490  0.65429  1.0000
  C   C262      1.0  0.29059  0.12080  0.65702  1.0000
  C   C263      1.0  0.20801  0.14676  0.58030  1.0000
  C   C264      1.0  0.26930  0.16577  0.61118  1.0000
  C   C265      1.0  0.16556  0.07982  0.71398  1.0000
  C   C266      1.0  0.21550  0.10261  0.75275  1.0000
  C   C267      1.0  0.12989  0.13952  0.75942  1.0000
  C   C268      1.0  0.20254  0.13728  0.83508  1.0000
  C   C269      1.0  0.20138  0.07652  0.80911  1.0000
  C   C270      1.0  0.25019  0.11050  0.81160  1.0000
  C   C271      1.0  0.20955  0.15245  0.70300  1.0000
  C   C272      1.0  0.26353  0.17031  0.74382  1.0000
  C   C273      1.0  0.15761  0.57128  0.86223  1.0000
  C   C274      1.0  0.15818  0.09999  0.87304  1.0000
  C   C275      1.0  0.14561  0.14795  0.94400  1.0000
  C   C276      1.0  0.18518  0.17081  0.95720  1.0000
  C   C277      1.0  0.20834  0.57115  0.96008  1.0000
  C   C278      1.0  0.24842  0.10139  0.96617  1.0000
  C   C279      1.0  0.20140  0.15794  0.84993  1.0000
  C   C280      1.0  0.23463  0.19199  0.91107  1.0000
  C   C281      1.0  0.15291  0.19298  0.02207  1.0000
  C   C282      1.0  0.17850  0.23525  0.05316  1.0000
  C   C283      1.0  0.14525  0.25723  0.03794  1.0000
  C   C284      1.0  0.19570  0.26430  0.09460  1.0000
  C   C285      1.0  0.19927  0.19093  0.06352  1.0000
  C   C286      1.0  0.25538  0.22544  0.06197  1.0000
  C   C287      1.0  0.21169  0.24505  0.99094  1.0000
  C   C288      1.0  0.22754  0.29153  0.02854  1.0000
  C   C289      1.0  0.15220  0.20329  0.15481  1.0000
  C   C290      1.0  0.15335  0.24839  0.16808  1.0000
  C   C291      1.0  0.14692  0.27082  0.22353  1.0000
  C   C292      1.0  0.17427  0.27460  0.26056  1.0000
  C   C293      1.0  0.23194  0.21457  0.23041  1.0000
  C   C294      1.0  0.27352  0.24345  0.24273  1.0000
  C   C295      1.0  0.22456  0.24774  0.14093  1.0000
  C   C296      1.0  0.25063  0.31014  0.17282  1.0000
  C   C297      1.0  0.13836  0.19129  0.29197  1.0000
  C   C298      1.0  0.15101  0.19966  0.34575  1.0000
  C   C299      1.0  0.16031  0.27165  0.36143  1.0000
  C   C300      1.0  0.16805  0.27395  0.39800  1.0000
  C   C301      1.0  0.19574  0.21136  0.35964  1.0000
  C   C302      1.0  0.22712  0.23399  0.36466  1.0000
  C   C303      1.0  0.20187  0.27557  0.27352  1.0000
  C   C304      1.0  0.24416  0.28581  0.31207  1.0000
  C   C305      1.0  0.15641  0.20497  0.43528  1.0000
  C   C306      1.0  0.15428  0.22763  0.45221  1.0000
  C   C307      1.0  0.14453  0.24966  0.51465  1.0000
  C   C308      1.0  0.21941  0.29790  0.52731  1.0000
  C   C309      1.0  0.22661  0.17768  0.49220  1.0000
  C   C310      1.0  0.26355  0.22702  0.53567  1.0000
  C   C311      1.0  0.23565  0.26739  0.43784  1.0000
  C   C312      1.0  0.23592  0.32552  0.45926  1.0000
  C   C313      1.0  0.15056  0.20148  0.57150  1.0000
  C   C314      1.0  0.16054  0.22892  0.60971  1.0000
  C   C315      1.0  0.16501  0.26706  0.63738  1.0000
  C   C316      1.0  0.18281  0.29929  0.67830  1.0000
  C   C317      1.0  0.21945  0.22302  0.64421  1.0000
  C   C318      1.0  0.23179  0.22559  0.67539  1.0000
  C   C319      1.0  0.20462  0.26710  0.58710  1.0000
  C   C320      1.0  0.22150  0.28203  0.60119  1.0000
  C   C321      1.0  0.15381  0.17628  0.73063  1.0000
  C   C322      1.0  0.20280  0.24909  0.75495  1.0000
  C   C323      1.0  0.12437  0.25804  0.77722  1.0000
  C   C324      1.0  0.18149  0.30932  0.83144  1.0000
  C   C325      1.0  0.20225  0.21410  0.80496  1.0000
  C   C326      1.0  0.23691  0.21992  0.81566  1.0000
  C   C327      1.0  0.22084  0.25146  0.73374  1.0000
  C   C328      1.0  0.25418  0.30838  0.74294  1.0000
  C   C329      1.0  0.13120  0.20683  0.89009  1.0000
  C   C330      1.0  0.19248  0.25212  0.88851  1.0000
  C   C331      1.0  0.13628  0.26573  0.94017  1.0000
  C   C332      1.0  0.18145  0.28162  0.94256  1.0000
  C   C333      1.0  0.22027  0.19911  0.97167  1.0000
  C   C334      1.0  0.24278  0.22021  0.97646  1.0000
  C   C335      1.0  0.21070  0.26531  0.87323  1.0000
  C   C336      1.0  0.23545  0.29000  0.88327  1.0000
  C   C337      1.0  0.13249  0.31872  0.99545  1.0000
  C   C338      1.0  0.19928  0.35751  0.02022  1.0000
  C   C339      1.0  0.14050  0.38250  0.07252  1.0000
  C   C340      1.0  0.17745  0.41319  0.10228  1.0000
  C   C341      1.0  0.22291  0.34588  0.06988  1.0000
  C   C342      1.0  0.27070  0.37428  0.08676  1.0000
  C   C343      1.0  0.20631  0.34745  0.98314  1.0000
  C   C344      1.0  0.24576  0.41158  0.03585  1.0000
  C   C345      1.0  0.13656  0.33196  0.13456  1.0000
  C   C346      1.0  0.18440  0.36111  0.18172  1.0000
  C   C347      1.0  0.15658  0.38120  0.24153  1.0000
  C   C348      1.0  0.17884  0.42916  0.24778  1.0000
  C   C349      1.0  0.20872  0.31019  0.20797  1.0000
  C   C350      1.0  0.22890  0.34300  0.27366  1.0000
  C   C351      1.0  0.21478  0.38853  0.12780  1.0000
  C   C352      1.0  0.24981  0.42427  0.18803  1.0000
  C   C353      1.0  0.14061  0.33017  0.30417  1.0000
  C   C354      1.0  0.18648  0.37445  0.29646  1.0000
  C   C355      1.0  0.13842  0.40827  0.35961  1.0000
  C   C356      1.0  0.20050  0.42028  0.41072  1.0000
  C   C357      1.0  0.18604  0.31764  0.35991  1.0000
  C   C358      1.0  0.23208  0.33199  0.40542  1.0000
  C   C359      1.0  0.24138  0.39617  0.26525  1.0000
  C   C360      1.0  0.24923  0.40543  0.28910  1.0000
  C   C361      1.0  0.15114  0.33505  0.42961  1.0000
  C   C362      1.0  0.15800  0.32425  0.47255  1.0000
  C   C363      1.0  0.14094  0.40550  0.47431  1.0000
  C   C364      1.0  0.14083  0.43605  0.55846  1.0000
  C   C365      1.0  0.22946  0.33572  0.50127  1.0000
  C   C366      1.0  0.25872  0.35043  0.56772  1.0000
  C   C367      1.0  0.23778  0.36616  0.44630  1.0000
  C   C368      1.0  0.21263  0.42695  0.45736  1.0000
  C   C369      1.0  0.16452  0.32817  0.56643  1.0000
  C   C370      1.0  0.19605  0.34770  0.59315  1.0000
  C   C371      1.0  0.16284  0.39744  0.64366  1.0000
  C   C372      1.0  0.16769  0.42094  0.67123  1.0000
  C   C373      1.0  0.21791  0.32919  0.63951  1.0000
  C   C374      1.0  0.24791  0.37960  0.68748  1.0000
  C   C375      1.0  0.21932  0.38953  0.57487  1.0000
  C   C376      1.0  0.24839  0.42609  0.61267  1.0000
  C   C377      1.0  0.13150  0.31723  0.67526  1.0000
  C   C378      1.0  0.15912  0.35960  0.77976  1.0000
  C   C379      1.0  0.17355  0.38729  0.73737  1.0000
  C   C380      1.0  0.18112  0.42781  0.84212  1.0000
  C   C381      1.0  0.20044  0.32248  0.78008  1.0000
  C   C382      1.0  0.24874  0.34141  0.82578  1.0000
  C   C383      1.0  0.20206  0.39236  0.71137  1.0000
  C   C384      1.0  0.21356  0.42566  0.72941  1.0000
  C   C385      1.0  0.12478  0.31263  0.83376  1.0000
  C   C386      1.0  0.17270  0.32065  0.87984  1.0000
  C   C387      1.0  0.14227  0.39496  0.94285  1.0000
  C   C388      1.0  0.19371  0.43656  0.95971  1.0000
  C   C389      1.0  0.20024  0.30235  0.91781  1.0000
  C   C390      1.0  0.24942  0.35312  0.94805  1.0000
  C   C391      1.0  0.22651  0.41649  0.85149  1.0000
  C   C392      1.0  0.26924  0.43095  0.87672  1.0000
  C   C393      1.0  0.14367  0.44664  0.01785  1.0000
  C   C394      1.0  0.19653  0.49424  0.03022  1.0000
  C   C395      1.0  0.15001  0.52472  0.09004  1.0000
  C   C396      1.0  0.19608  0.56288  0.08759  1.0000
  C   C397      1.0  0.22400  0.47049  0.06520  1.0000
  C   C398      1.0  0.23504  0.49818  0.08778  1.0000
  C   C399      1.0  0.20528  0.51524  0.98386  1.0000
  C   C400      1.0  0.21915  0.57582  0.02938  1.0000
  C   C401      1.0  0.12030  0.47997  0.14481  1.0000
  C   C402      1.0  0.19967  0.50954  0.16419  1.0000
  C   C403      1.0  0.15382  0.53074  0.20049  1.0000
  C   C404      1.0  0.16350  0.56751  0.25290  1.0000
  C   C405      1.0  0.19741  0.44486  0.21388  1.0000
  C   C406      1.0  0.23872  0.51465  0.28406  1.0000
  C   C407      1.0  0.22769  0.51396  0.12586  1.0000
  C   C408      1.0  0.24189  0.07329  0.20158  1.0000
  C   C409      1.0  0.13137  0.45243  0.30391  1.0000
  C   C410      1.0  0.17490  0.48447  0.33164  1.0000
  C   C411      1.0  0.15841  0.52315  0.39430  1.0000
  C   C412      1.0  0.18286  0.55044  0.36687  1.0000
  C   C413      1.0  0.19959  0.45635  0.35567  1.0000
  C   C414      1.0  0.23034  0.52824  0.40294  1.0000
  C   C415      1.0  0.22079  0.51938  0.28428  1.0000
  C   C416      1.0  0.21974  0.55419  0.30637  1.0000
  C   C417      1.0  0.12316  0.47989  0.43019  1.0000
  C   C418      1.0  0.18494  0.48749  0.45792  1.0000
  C   C419      1.0  0.12506  0.53179  0.48537  1.0000
  C   C420      1.0  0.16087  0.53637  0.54238  1.0000
  C   C421      1.0  0.22271  0.46640  0.49873  1.0000
  C   C422      1.0  0.24833  0.50703  0.51391  1.0000
  C   C423      1.0  0.22525  0.52320  0.42145  1.0000
  C   C424      1.0  0.23709  0.53120  0.44153  1.0000
  C   C425      1.0  0.12513  0.45155  0.60347  1.0000
  C   C426      1.0  0.16866  0.48599  0.60053  1.0000
  C   C427      1.0  0.12096  0.50740  0.66625  1.0000
  C   C428      1.0  0.17910  0.53174  0.64680  1.0000
  C   C429      1.0  0.23538  0.45192  0.62210  1.0000
  C   C430      1.0  0.26193  0.48499  0.66874  1.0000
  C   C431      1.0  0.21357  0.53956  0.55700  1.0000
  C   C432      1.0  0.26223  0.55422  0.59897  1.0000
  C   C433      1.0  0.16704  0.45156  0.71705  1.0000
  C   C434      1.0  0.17136  0.47023  0.75519  1.0000
  C   C435      1.0  0.12657  0.54482  0.80985  1.0000
  C   C436      1.0  0.17001  0.54433  0.80871  1.0000
  C   C437      1.0  0.24099  0.43978  0.76858  1.0000
  C   C438      1.0  0.23531  0.47595  0.84422  1.0000
  C   C439      1.0  0.20858  0.52296  0.71156  1.0000
  C   C440      1.0  0.24754  0.57998  0.77791  1.0000
  C   C441      1.0  0.15114  0.44722  0.89310  1.0000
  C   C442      1.0  0.18039  0.47559  0.88028  1.0000
  C   C443      1.0  0.14372  0.53018  0.88553  1.0000
  C   C444      1.0  0.18455  0.55148  0.97256  1.0000
  C   C445      1.0  0.20086  0.46990  0.92129  1.0000
  C   C446      1.0  0.26751  0.52068  0.96839  1.0000
  C   C447      1.0  0.22001  0.52472  0.83116  1.0000
  C   C448      1.0  0.25732  0.53159  0.85378  1.0000
  C   C449      1.0  0.28493  0.08079  0.98689  1.0000
  C   C450      1.0  0.29572  0.12222  0.01080  1.0000
  C   C451      1.0  0.30203  0.13139  0.05385  1.0000
  C   C452      1.0  0.32559  0.13302  0.09523  1.0000
  C   C453      1.0  0.35624  0.58271  0.09179  1.0000
  C   C454      1.0  0.37599  0.11042  0.10369  1.0000
  C   C455      1.0  0.36811  0.14043  0.01691  1.0000
  C   C456      1.0  0.39040  0.18676  0.03545  1.0000
  C   C457      1.0  0.27400  0.07184  0.14478  1.0000
  C   C458      1.0  0.34471  0.08725  0.17874  1.0000
  C   C459      1.0  0.26610  0.14835  0.22775  1.0000
  C   C460      1.0  0.33125  0.14792  0.23322  1.0000
  C   C461      1.0  0.35559  0.07655  0.22525  1.0000
  C   C462      1.0  0.38546  0.10549  0.24425  1.0000
  C   C463      1.0  0.34945  0.13081  0.12604  1.0000
  C   C464      1.0  0.40751  0.18695  0.18766  1.0000
  C   C465      1.0  0.27875  0.09182  0.27088  1.0000
  C   C466      1.0  0.33904  0.11690  0.34019  1.0000
  C   C467      1.0  0.25894  0.14042  0.34940  1.0000
  C   C468      1.0  0.33357  0.17027  0.36033  1.0000
  C   C469      1.0  0.36733  0.09668  0.36475  1.0000
  C   C470      1.0  0.40493  0.10624  0.40145  1.0000
  C   C471      1.0  0.34961  0.15913  0.32237  1.0000
  C   C472      1.0  0.38277  0.17543  0.31665  1.0000
  C   C473      1.0  0.31215  0.07616  0.44331  1.0000
  C   C474      1.0  0.32024  0.12038  0.47825  1.0000
  C   C475      1.0  0.29314  0.14521  0.47966  1.0000
  C   C476      1.0  0.33664  0.15544  0.52887  1.0000
  C   C477      1.0  0.35966  0.08330  0.51545  1.0000
  C   C478      1.0  0.39903  0.10849  0.54844  1.0000
  C   C479      1.0  0.34629  0.13766  0.41999  1.0000
  C   C480      1.0  0.36799  0.15302  0.48254  1.0000
  C   C481      1.0  0.27783  0.56259  0.57302  1.0000
  C   C482      1.0  0.31304  0.09778  0.60286  1.0000
  C   C483      1.0  0.29079  0.13902  0.64122  1.0000
  C   C484      1.0  0.32508  0.16692  0.68469  1.0000
  C   C485      1.0  0.36883  0.58417  0.67399  1.0000
  C   C486      1.0  0.37864  0.09758  0.67681  1.0000
  C   C487      1.0  0.37879  0.15072  0.57892  1.0000
  C   C488      1.0  0.38259  0.17553  0.60862  1.0000
  C   C489      1.0  0.28331  0.09022  0.73984  1.0000
  C   C490      1.0  0.32888  0.09716  0.75628  1.0000
  C   C491      1.0  0.27313  0.11704  0.75948  1.0000
  C   C492      1.0  0.31860  0.16407  0.81025  1.0000
  C   C493      1.0  0.34933  0.57991  0.76916  1.0000
  C   C494      1.0  0.39806  0.12485  0.81751  1.0000
  C   C495      1.0  0.33068  0.13426  0.71685  1.0000
  C   C496      1.0  0.40186  0.18190  0.76206  1.0000
  C   C497      1.0  0.30197  0.58377  0.86296  1.0000
  C   C498      1.0  0.31116  0.09723  0.90498  1.0000
  C   C499      1.0  0.28251  0.11580  0.89920  1.0000
  C   C500      1.0  0.33225  0.16253  0.95593  1.0000
  C   C501      1.0  0.34476  0.07672  0.92691  1.0000
  C   C502      1.0  0.38855  0.09920  0.96133  1.0000
  C   C503      1.0  0.37047  0.13789  0.87664  1.0000
  C   C504      1.0  0.36371  0.15757  0.90494  1.0000
  C   C505      1.0  0.27437  0.19691  0.99422  1.0000
  C   C506      1.0  0.32273  0.23578  0.06513  1.0000
  C   C507      1.0  0.30049  0.26604  0.07928  1.0000
  C   C508      1.0  0.32928  0.29561  0.09789  1.0000
  C   C509      1.0  0.36384  0.20872  0.06111  1.0000
  C   C510      1.0  0.39108  0.23747  0.11299  1.0000
  C   C511      1.0  0.38280  0.26062  0.98951  1.0000
  C   C512      1.0  0.40012  0.28229  0.03241  1.0000
  C   C513      1.0  0.25733  0.20554  0.17747  1.0000
  C   C514      1.0  0.31512  0.22694  0.18719  1.0000
  C   C515      1.0  0.30045  0.24193  0.21045  1.0000
  C   C516      1.0  0.32288  0.29603  0.25394  1.0000
  C   C517      1.0  0.35431  0.19606  0.19726  1.0000
  C   C518      1.0  0.41794  0.23175  0.26678  1.0000
  C   C519      1.0  0.35582  0.26512  0.14044  1.0000
  C   C520      1.0  0.40144  0.29630  0.15526  1.0000
  C   C521      1.0  0.32499  0.20241  0.27499  1.0000
  C   C522      1.0  0.29879  0.22088  0.31773  1.0000
  C   C523      1.0  0.27172  0.27166  0.33450  1.0000
  C   C524      1.0  0.32313  0.29915  0.37747  1.0000
  C   C525      1.0  0.34090  0.18823  0.35871  1.0000
  C   C526      1.0  0.38715  0.22621  0.39663  1.0000
  C   C527      1.0  0.37391  0.25532  0.26788  1.0000
  C   C528      1.0  0.39044  0.29409  0.33982  1.0000
  C   C529      1.0  0.29902  0.20222  0.41857  1.0000
  C   C530      1.0  0.34196  0.22507  0.47301  1.0000
  C   C531      1.0  0.29547  0.27813  0.49271  1.0000
  C   C532      1.0  0.34815  0.31232  0.53499  1.0000
  C   C533      1.0  0.35751  0.17747  0.50776  1.0000
  C   C534      1.0  0.40454  0.22279  0.53865  1.0000
  C   C535      1.0  0.34378  0.30033  0.42229  1.0000
  C   C536      1.0  0.39639  0.30476  0.46098  1.0000
  C   C537      1.0  0.29399  0.21370  0.60346  1.0000
  C   C538      1.0  0.34025  0.26391  0.59231  1.0000
  C   C539      1.0  0.27644  0.25051  0.64447  1.0000
  C   C540      1.0  0.31580  0.29133  0.68114  1.0000
  C   C541      1.0  0.36290  0.18924  0.64628  1.0000
  C   C542      1.0  0.39385  0.23048  0.69842  1.0000
  C   C543      1.0  0.33198  0.25823  0.56428  1.0000
  C   C544      1.0  0.38710  0.29036  0.59672  1.0000
  C   C545      1.0  0.27768  0.20778  0.72234  1.0000
  C   C546      1.0  0.30298  0.20750  0.74083  1.0000
  C   C547      1.0  0.26020  0.26678  0.78986  1.0000
  C   C548      1.0  0.29340  0.30305  0.81970  1.0000
  C   C549      1.0  0.34097  0.21413  0.81949  1.0000
  C   C550      1.0  0.39209  0.23609  0.80730  1.0000
  C   C551      1.0  0.36519  0.25964  0.72529  1.0000
  C   C552      1.0  0.39190  0.30171  0.74410  1.0000
  C   C553      1.0  0.26613  0.20648  0.88513  1.0000
  C   C554      1.0  0.28770  0.23713  0.87972  1.0000
  C   C555      1.0  0.26633  0.26821  0.92830  1.0000
  C   C556      1.0  0.32530  0.30216  0.93768  1.0000
  C   C557      1.0  0.38105  0.21935  0.92056  1.0000
  C   C558      1.0  0.39363  0.21631  0.96873  1.0000
  C   C559      1.0  0.35922  0.26762  0.85444  1.0000
  C   C560      1.0  0.40185  0.29759  0.89077  1.0000
  C   C561      1.0  0.29051  0.33673  0.01097  1.0000
  C   C562      1.0  0.32833  0.37904  0.03127  1.0000
  C   C563      1.0  0.30600  0.38709  0.06688  1.0000
  C   C564      1.0  0.31706  0.43723  0.10161  1.0000
  C   C565      1.0  0.34303  0.33454  0.06063  1.0000
  C   C566      1.0  0.39011  0.36008  0.10878  1.0000
  C   C567      1.0  0.37293  0.39049  0.98072  1.0000
  C   C568      1.0  0.40495  0.41402  0.01899  1.0000
  C   C569      1.0  0.27973  0.33791  0.12254  1.0000
  C   C570      1.0  0.30975  0.37332  0.20442  1.0000
  C   C571      1.0  0.28630  0.40367  0.21800  1.0000
  C   C572      1.0  0.32133  0.41099  0.25221  1.0000
  C   C573      1.0  0.34943  0.32481  0.21595  1.0000
  C   C574      1.0  0.39771  0.34813  0.24245  1.0000
  C   C575      1.0  0.36755  0.41385  0.14430  1.0000
  C   C576      1.0  0.40449  0.43464  0.17181  1.0000
  C   C577      1.0  0.29727  0.31884  0.26613  1.0000
  C   C578      1.0  0.31370  0.36580  0.31002  1.0000
  C   C579      1.0  0.29854  0.38322  0.36621  1.0000
  C   C580      1.0  0.31905  0.44252  0.38831  1.0000
  C   C581      1.0  0.35598  0.32661  0.34244  1.0000
  C   C582      1.0  0.39967  0.34867  0.38061  1.0000
  C   C583      1.0  0.35209  0.38724  0.30676  1.0000
  C   C584      1.0  0.38630  0.44234  0.28881  1.0000
  C   C585      1.0  0.29594  0.32567  0.45547  1.0000
  C   C586      1.0  0.30510  0.35931  0.46515  1.0000
  C   C587      1.0  0.24953  0.38966  0.54042  1.0000
  C   C588      1.0  0.32168  0.43422  0.53288  1.0000
  C   C589      1.0  0.37810  0.31743  0.48439  1.0000
  C   C590      1.0  0.40380  0.34302  0.53590  1.0000
  C   C591      1.0  0.32722  0.39977  0.42073  1.0000
  C   C592      1.0  0.39319  0.42489  0.46750  1.0000
  C   C593      1.0  0.27835  0.31929  0.58240  1.0000
  C   C594      1.0  0.33743  0.33890  0.59557  1.0000
  C   C595      1.0  0.27828  0.38224  0.65594  1.0000
  C   C596      1.0  0.31963  0.41886  0.68268  1.0000
  C   C597      1.0  0.37572  0.29997  0.64942  1.0000
  C   C598      1.0  0.38880  0.35401  0.67633  1.0000
  C   C599      1.0  0.32656  0.38994  0.57535  1.0000
  C   C600      1.0  0.38586  0.40638  0.59551  1.0000
  C   C601      1.0  0.29591  0.34885  0.71360  1.0000
  C   C602      1.0  0.33083  0.37587  0.75410  1.0000
  C   C603      1.0  0.27181  0.39566  0.81038  1.0000
  C   C604      1.0  0.31168  0.41779  0.80337  1.0000
  C   C605      1.0  0.35861  0.31482  0.79718  1.0000
  C   C606      1.0  0.40504  0.35212  0.81604  1.0000
  C   C607      1.0  0.35712  0.37729  0.70530  1.0000
  C   C608      1.0  0.41896  0.42383  0.70238  1.0000
  C   C609      1.0  0.30485  0.32782  0.85640  1.0000
  C   C610      1.0  0.34207  0.37729  0.90937  1.0000
  C   C611      1.0  0.30496  0.36852  0.94104  1.0000
  C   C612      1.0  0.31098  0.42169  0.97888  1.0000
  C   C613      1.0  0.37097  0.33171  0.91949  1.0000
  C   C614      1.0  0.40862  0.35450  0.96634  1.0000
  C   C615      1.0  0.36008  0.39714  0.84177  1.0000
  C   C616      1.0  0.40236  0.42996  0.88408  1.0000
  C   C617      1.0  0.29076  0.47210  0.98110  1.0000
  C   C618      1.0  0.31816  0.47604  0.02738  1.0000
  C   C619      1.0  0.29695  0.51510  0.06020  1.0000
  C   C620      1.0  0.33683  0.55840  0.11863  1.0000
  C   C621      1.0  0.39050  0.45188  0.04490  1.0000
  C   C622      1.0  0.42301  0.48769  0.10970  1.0000
  C   C623      1.0  0.36876  0.52765  0.98150  1.0000
  C   C624      1.0  0.37788  0.53825  0.02486  1.0000
  C   C625      1.0  0.28609  0.46351  0.15182  1.0000
  C   C626      1.0  0.30647  0.48689  0.16750  1.0000
  C   C627      1.0  0.27838  0.52916  0.21582  1.0000
  C   C628      1.0  0.30698  0.55831  0.25618  1.0000
  C   C629      1.0  0.36278  0.45552  0.21492  1.0000
  C   C630      1.0  0.40724  0.48426  0.25595  1.0000
  C   C631      1.0  0.34766  0.53010  0.16366  1.0000
  C   C632      1.0  0.39116  0.55534  0.18242  1.0000
  C   C633      1.0  0.28364  0.47716  0.28835  1.0000
  C   C634      1.0  0.30340  0.50146  0.31348  1.0000
  C   C635      1.0  0.29966  0.49248  0.37350  1.0000
  C   C636      1.0  0.30677  0.54771  0.39605  1.0000
  C   C637      1.0  0.36483  0.44168  0.36600  1.0000
  C   C638      1.0  0.40400  0.48775  0.39343  1.0000
  C   C639      1.0  0.37421  0.51305  0.29419  1.0000
  C   C640      1.0  0.39587  0.55156  0.31146  1.0000
  C   C641      1.0  0.26912  0.46265  0.43788  1.0000
  C   C642      1.0  0.33333  0.48623  0.46782  1.0000
  C   C643      1.0  0.28743  0.52541  0.49794  1.0000
  C   C644      1.0  0.34013  0.54651  0.51739  1.0000
  C   C645      1.0  0.35598  0.45187  0.52955  1.0000
  C   C646      1.0  0.38436  0.47502  0.55322  1.0000
  C   C647      1.0  0.38442  0.54858  0.41919  1.0000
  C   C648      1.0  0.38115  0.07583  0.46128  1.0000
  C   C649      1.0  0.26796  0.46502  0.53821  1.0000
  C   C650      1.0  0.29220  0.48350  0.61448  1.0000
  C   C651      1.0  0.28400  0.52402  0.65851  1.0000
  C   C652      1.0  0.34564  0.54121  0.66738  1.0000
  C   C653      1.0  0.36102  0.44962  0.63061  1.0000
  C   C654      1.0  0.38941  0.47343  0.68041  1.0000
  C   C655      1.0  0.36839  0.51784  0.56262  1.0000
  C   C656      1.0  0.37312  0.54083  0.59342  1.0000
  C   C657      1.0  0.30923  0.48326  0.70912  1.0000
  C   C658      1.0  0.32574  0.51721  0.73723  1.0000
  C   C659      1.0  0.31868  0.51461  0.77439  1.0000
  C   C660      1.0  0.35548  0.54655  0.82791  1.0000
  C   C661      1.0  0.37183  0.45782  0.77234  1.0000
  C   C662      1.0  0.38727  0.49976  0.84479  1.0000
  C   C663      1.0  0.36835  0.50051  0.72308  1.0000
  C   C664      1.0  0.38561  0.57124  0.76476  1.0000
  C   C665      1.0  0.27906  0.44383  0.84934  1.0000
  C   C666      1.0  0.32518  0.49781  0.88144  1.0000
  C   C667      1.0  0.28607  0.54060  0.95055  1.0000
  C   C668      1.0  0.31193  0.57535  0.98222  1.0000
  C   C669      1.0  0.36324  0.46864  0.91638  1.0000
  C   C670      1.0  0.39675  0.49477  0.97487  1.0000
  C   C671      1.0  0.34497  0.53701  0.85889  1.0000
  C   C672      1.0  0.37841  0.57582  0.91517  1.0000
  C   C673      1.0  0.43057  0.57727  0.00633  1.0000
  C   C674      1.0  0.44760  0.07687  0.06420  1.0000
  C   C675      1.0  0.47087  0.14525  0.07736  1.0000
  C   C676      1.0  0.45432  0.15218  0.09241  1.0000
  C   C677      1.0  0.51126  0.58390  0.07046  1.0000
  C   C678      1.0  0.54771  0.09961  0.12226  1.0000
  C   C679      1.0  0.46136  0.13462  0.01552  1.0000
  C   C680      1.0  0.56304  0.17674  0.05049  1.0000
  C   C681      1.0  0.39163  0.07832  0.14391  1.0000
  C   C682      1.0  0.44822  0.10397  0.17928  1.0000
  C   C683      1.0  0.42329  0.14349  0.23539  1.0000
  C   C684      1.0  0.47495  0.17657  0.23651  1.0000
  C   C685      1.0  0.50668  0.07386  0.22013  1.0000
  C   C686      1.0  0.55270  0.10609  0.23639  1.0000
  C   C687      1.0  0.51045  0.12711  0.13934  1.0000
  C   C688      1.0  0.53106  0.16749  0.14109  1.0000
  C   C689      1.0  0.41500  0.58326  0.28470  1.0000
  C   C690      1.0  0.46047  0.10453  0.32565  1.0000
  C   C691      1.0  0.41302  0.15500  0.35365  1.0000
  C   C692      1.0  0.46550  0.16446  0.37232  1.0000
  C   C693      1.0  0.47974  0.58128  0.37979  1.0000
  C   C694      1.0  0.51963  0.10653  0.37570  1.0000
  C   C695      1.0  0.50041  0.12118  0.26632  1.0000
  C   C696      1.0  0.51708  0.15641  0.31897  1.0000
  C   C697      1.0  0.42137  0.57253  0.43466  1.0000
  C   C698      1.0  0.47000  0.10068  0.47330  1.0000
  C   C699      1.0  0.42605  0.11881  0.51623  1.0000
  C   C700      1.0  0.45912  0.16138  0.56498  1.0000
  C   C701      1.0  0.47696  0.57149  0.48727  1.0000
  C   C702      1.0  0.55189  0.11378  0.54596  1.0000
  C   C703      1.0  0.48911  0.12670  0.41214  1.0000
  C   C704      1.0  0.54759  0.15473  0.45487  1.0000
  C   C705      1.0  0.40540  0.07777  0.56674  1.0000
  C   C706      1.0  0.48737  0.11049  0.59370  1.0000
  C   C707      1.0  0.40376  0.11680  0.64364  1.0000
  C   C708      1.0  0.45748  0.16120  0.67978  1.0000
  C   C709      1.0  0.47631  0.56315  0.63142  1.0000
  C   C710      1.0  0.52617  0.08230  0.69585  1.0000
  C   C711      1.0  0.49197  0.11111  0.57263  1.0000
  C   C712      1.0  0.54690  0.19963  0.59900  1.0000
  C   C713      1.0  0.42960  0.56936  0.69952  1.0000
  C   C714      1.0  0.42740  0.09687  0.75178  1.0000
  C   C715      1.0  0.40218  0.14663  0.83129  1.0000
  C   C716      1.0  0.43282  0.16855  0.81152  1.0000
  C   C717      1.0  0.49717  0.57982  0.81141  1.0000
  C   C718      1.0  0.54035  0.10799  0.84413  1.0000
  C   C719      1.0  0.49704  0.15908  0.70073  1.0000
  C   C720      1.0  0.52354  0.17062  0.74651  1.0000
  C   C721      1.0  0.42626  0.57871  0.82794  1.0000
  C   C722      1.0  0.47232  0.09814  0.89639  1.0000
  C   C723      1.0  0.42204  0.13817  0.90209  1.0000
  C   C724      1.0  0.45300  0.15960  0.96217  1.0000
  C   C725      1.0  0.51603  0.07858  0.95140  1.0000
  C   C726      1.0  0.55830  0.10069  0.98235  1.0000
  C   C727      1.0  0.50884  0.11024  0.85320  1.0000
  C   C728      1.0  0.55725  0.19223  0.88851  1.0000
  C   C729      1.0  0.41703  0.20587  0.99931  1.0000
  C   C730      1.0  0.45899  0.23506  0.00956  1.0000
  C   C731      1.0  0.43757  0.27753  0.06806  1.0000
  C   C732      1.0  0.45026  0.29825  0.11479  1.0000
  C   C733      1.0  0.49330  0.20256  0.05251  1.0000
  C   C734      1.0  0.50117  0.23968  0.10831  1.0000
  C   C735      1.0  0.50383  0.23305  0.98843  1.0000
  C   C736      1.0  0.54324  0.27278  0.02409  1.0000
  C   C737      1.0  0.40418  0.20665  0.14422  1.0000
  C   C738      1.0  0.48022  0.20423  0.17282  1.0000
  C   C739      1.0  0.41383  0.28667  0.21440  1.0000
  C   C740      1.0  0.46044  0.28909  0.23345  1.0000
  C   C741      1.0  0.48262  0.19160  0.21696  1.0000
  C   C742      1.0  0.51925  0.24886  0.25227  1.0000
  C   C743      1.0  0.49880  0.27335  0.14110  1.0000
  C   C744      1.0  0.51684  0.32480  0.13027  1.0000
  C   C745      1.0  0.42651  0.20698  0.28790  1.0000
  C   C746      1.0  0.44493  0.22337  0.31040  1.0000
  C   C747      1.0  0.42318  0.25748  0.36723  1.0000
  C   C748      1.0  0.45740  0.28041  0.39870  1.0000
  C   C749      1.0  0.50748  0.21838  0.33486  1.0000
  C   C750      1.0  0.52657  0.21646  0.39104  1.0000
  C   C751      1.0  0.48742  0.27430  0.28454  1.0000
  C   C752      1.0  0.52640  0.30312  0.32118  1.0000
  C   C753      1.0  0.43742  0.22966  0.41691  1.0000
  C   C754      1.0  0.45468  0.21656  0.47506  1.0000
  C   C755      1.0  0.43515  0.26498  0.50717  1.0000
  C   C756      1.0  0.45030  0.30716  0.53166  1.0000
  C   C757      1.0  0.51037  0.19183  0.50270  1.0000
  C   C758      1.0  0.52436  0.24152  0.54222  1.0000
  C   C759      1.0  0.49935  0.26862  0.42315  1.0000
  C   C760      1.0  0.52464  0.31457  0.47845  1.0000
  C   C761      1.0  0.44128  0.20190  0.58348  1.0000
  C   C762      1.0  0.50369  0.20130  0.61646  1.0000
  C   C763      1.0  0.44419  0.25661  0.64244  1.0000
  C   C764      1.0  0.46622  0.31708  0.67180  1.0000
  C   C765      1.0  0.49710  0.21831  0.64660  1.0000
  C   C766      1.0  0.52221  0.21485  0.70998  1.0000
  C   C767      1.0  0.50631  0.27524  0.57181  1.0000
  C   C768      1.0  0.53900  0.27584  0.62669  1.0000
  C   C769      1.0  0.40831  0.18184  0.69929  1.0000
  C   C770      1.0  0.47452  0.22649  0.77489  1.0000
  C   C771      1.0  0.40911  0.27996  0.78273  1.0000
  C   C772      1.0  0.45230  0.29650  0.83162  1.0000
  C   C773      1.0  0.49364  0.21416  0.79074  1.0000
  C   C774      1.0  0.54061  0.21536  0.81271  1.0000
  C   C775      1.0  0.47983  0.25833  0.72483  1.0000
  C   C776      1.0  0.55402  0.27666  0.72214  1.0000
  C   C777      1.0  0.43382  0.19641  0.84053  1.0000
  C   C778      1.0  0.47622  0.22167  0.88165  1.0000
  C   C779      1.0  0.42360  0.25994  0.95059  1.0000
  C   C780      1.0  0.46587  0.30462  0.95401  1.0000
  C   C781      1.0  0.47834  0.22114  0.95650  1.0000
  C   C782      1.0  0.52741  0.21244  0.93979  1.0000
  C   C783      1.0  0.48803  0.23764  0.88043  1.0000
  C   C784      1.0  0.50845  0.30309  0.88938  1.0000
  C   C785      1.0  0.40663  0.32296  0.01385  1.0000
  C   C786      1.0  0.45126  0.36446  0.01254  1.0000
  C   C787      1.0  0.42082  0.38530  0.06737  1.0000
  C   C788      1.0  0.49060  0.41453  0.09516  1.0000
  C   C789      1.0  0.49402  0.31591  0.07572  1.0000
  C   C790      1.0  0.55849  0.40831  0.12432  1.0000
  C   C791      1.0  0.49196  0.41726  0.97246  1.0000
  C   C792      1.0  0.57215  0.41158  0.02865  1.0000
  C   C793      1.0  0.41830  0.33710  0.13160  1.0000
  C   C794      1.0  0.46966  0.36705  0.17530  1.0000
  C   C795      1.0  0.43436  0.38737  0.24912  1.0000
  C   C796      1.0  0.48002  0.42950  0.22945  1.0000
  C   C797      1.0  0.50681  0.31260  0.20202  1.0000
  C   C798      1.0  0.55794  0.36073  0.23233  1.0000
  C   C799      1.0  0.51683  0.42288  0.12046  1.0000
  C   C800      1.0  0.52695  0.42073  0.18720  1.0000
  C   C801      1.0  0.42058  0.31791  0.27289  1.0000
  C   C802      1.0  0.47672  0.35017  0.32950  1.0000
  C   C803      1.0  0.41185  0.39046  0.33226  1.0000
  C   C804      1.0  0.44878  0.42353  0.39193  1.0000
  C   C805      1.0  0.49149  0.34557  0.37754  1.0000
  C   C806      1.0  0.53261  0.34375  0.37870  1.0000
  C   C807      1.0  0.48872  0.39221  0.29157  1.0000
  C   C808      1.0  0.55280  0.43267  0.34403  1.0000
  C   C809      1.0  0.42486  0.30373  0.42025  1.0000
  C   C810      1.0  0.47326  0.38098  0.46412  1.0000
  C   C811      1.0  0.44330  0.39608  0.53198  1.0000
  C   C812      1.0  0.42169  0.41213  0.53145  1.0000
  C   C813      1.0  0.51033  0.32544  0.48874  1.0000
  C   C814      1.0  0.53303  0.36383  0.52939  1.0000
  C   C815      1.0  0.47568  0.38300  0.41348  1.0000
  C   C816      1.0  0.54763  0.41366  0.46707  1.0000
  C   C817      1.0  0.43190  0.32039  0.57528  1.0000
  C   C818      1.0  0.46940  0.39102  0.59292  1.0000
  C   C819      1.0  0.42809  0.40260  0.63512  1.0000
  C   C820      1.0  0.45453  0.41967  0.69391  1.0000
  C   C821      1.0  0.54564  0.31567  0.61077  1.0000
  C   C822      1.0  0.54198  0.34449  0.65413  1.0000
  C   C823      1.0  0.48098  0.36078  0.59829  1.0000
  C   C824      1.0  0.55991  0.44090  0.62170  1.0000
  C   C825      1.0  0.43234  0.31891  0.69505  1.0000
  C   C826      1.0  0.47008  0.39049  0.78004  1.0000
  C   C827      1.0  0.42516  0.40689  0.78311  1.0000
  C   C828      1.0  0.48194  0.42102  0.80471  1.0000
  C   C829      1.0  0.47716  0.33314  0.79491  1.0000
  C   C830      1.0  0.53370  0.34110  0.79985  1.0000
  C   C831      1.0  0.48233  0.41179  0.67795  1.0000
  C   C832      1.0  0.52801  0.41619  0.74702  1.0000
  C   C833      1.0  0.41065  0.33946  0.85765  1.0000
  C   C834      1.0  0.45552  0.35643  0.88865  1.0000
  C   C835      1.0  0.42909  0.37993  0.90010  1.0000
  C   C836      1.0  0.45139  0.43084  0.95414  1.0000
  C   C837      1.0  0.48257  0.34368  0.90772  1.0000
  C   C838      1.0  0.55035  0.32687  0.97134  1.0000
  C   C839      1.0  0.53451  0.40681  0.84685  1.0000
  C   C840      1.0  0.53540  0.43130  0.90431  1.0000
  C   C841      1.0  0.43047  0.42349  0.00624  1.0000
  C   C842      1.0  0.46423  0.47690  0.03181  1.0000
  C   C843      1.0  0.41468  0.55086  0.05672  1.0000
  C   C844      1.0  0.48987  0.08135  0.10810  1.0000
  C   C845      1.0  0.51890  0.43937  0.10631  1.0000
  C   C846      1.0  0.53228  0.49251  0.11249  1.0000
  C   C847      1.0  0.47214  0.51249  0.01889  1.0000
  C   C848      1.0  0.53935  0.56336  0.01428  1.0000
  C   C849      1.0  0.40812  0.46235  0.14374  1.0000
  C   C850      1.0  0.45873  0.48501  0.16673  1.0000
  C   C851      1.0  0.44069  0.51191  0.21594  1.0000
  C   C852      1.0  0.46466  0.54833  0.25911  1.0000
  C   C853      1.0  0.48704  0.45381  0.23120  1.0000
  C   C854      1.0  0.53231  0.51353  0.23535  1.0000
  C   C855      1.0  0.49630  0.51457  0.13460  1.0000
  C   C856      1.0  0.54860  0.53253  0.16471  1.0000
  C   C857      1.0  0.45599  0.45648  0.31389  1.0000
  C   C858      1.0  0.44870  0.51095  0.31871  1.0000
  C   C859      1.0  0.42864  0.53652  0.35485  1.0000
  C   C860      1.0  0.44384  0.56047  0.37000  1.0000
  C   C861      1.0  0.49905  0.46292  0.36455  1.0000
  C   C862      1.0  0.52687  0.49686  0.39294  1.0000
  C   C863      1.0  0.50360  0.50636  0.27277  1.0000
  C   C864      1.0  0.50402  0.54396  0.31009  1.0000
  C   C865      1.0  0.44813  0.46321  0.42190  1.0000
  C   C866      1.0  0.43839  0.50018  0.44132  1.0000
  C   C867      1.0  0.42727  0.52678  0.50187  1.0000
  C   C868      1.0  0.44067  0.53355  0.50881  1.0000
  C   C869      1.0  0.49564  0.46666  0.50003  1.0000
  C   C870      1.0  0.54246  0.50746  0.53475  1.0000
  C   C871      1.0  0.49491  0.51446  0.41815  1.0000
  C   C872      1.0  0.52583  0.53970  0.46900  1.0000
  C   C873      1.0  0.41061  0.45221  0.58461  1.0000
  C   C874      1.0  0.47055  0.51006  0.59005  1.0000
  C   C875      1.0  0.42762  0.50190  0.63338  1.0000
  C   C876      1.0  0.47873  0.54054  0.67301  1.0000
  C   C877      1.0  0.50999  0.46081  0.61013  1.0000
  C   C878      1.0  0.52406  0.50466  0.70304  1.0000
  C   C879      1.0  0.50444  0.54746  0.58167  1.0000
  C   C880      1.0  0.53705  0.54363  0.60396  1.0000
  C   C881      1.0  0.42661  0.43219  0.70928  1.0000
  C   C882      1.0  0.46463  0.48970  0.74147  1.0000
  C   C883      1.0  0.45990  0.49735  0.76767  1.0000
  C   C884      1.0  0.50943  0.54524  0.82727  1.0000
  C   C885      1.0  0.49268  0.44265  0.77540  1.0000
  C   C886      1.0  0.52654  0.46431  0.83091  1.0000
  C   C887      1.0  0.50564  0.51241  0.71553  1.0000
  C   C888      1.0  0.55015  0.55749  0.75455  1.0000
  C   C889      1.0  0.43748  0.46631  0.85598  1.0000
  C   C890      1.0  0.47930  0.50018  0.86726  1.0000
  C   C891      1.0  0.41627  0.52902  0.93021  1.0000
  C   C892      1.0  0.46078  0.53714  0.98800  1.0000
  C   C893      1.0  0.49341  0.45188  0.93318  1.0000
  C   C894      1.0  0.49979  0.50983  0.96282  1.0000
  C   C895      1.0  0.50036  0.51305  0.86776  1.0000
  C   C896      1.0  0.51138  0.54125  0.91509  1.0000
  C   C897      1.0  0.56825  0.55599  0.99866  1.0000
  C   C898      1.0  0.58972  0.08425  0.04599  1.0000
  C   C899      1.0  0.56313  0.15901  0.05841  1.0000
  C   C900      1.0  0.61564  0.14822  0.08537  1.0000
  C   C901      1.0  0.65208  0.57268  0.07611  1.0000
  C   C902      1.0  0.67915  0.11273  0.10436  1.0000
  C   C903      1.0  0.63833  0.13634  0.00553  1.0000
  C   C904      1.0  0.68387  0.16101  0.06176  1.0000
  C   C905      1.0  0.56001  0.57786  0.11186  1.0000
  C   C906      1.0  0.59855  0.10488  0.19217  1.0000
  C   C907      1.0  0.57571  0.15439  0.22944  1.0000
  C   C908      1.0  0.60128  0.20252  0.27227  1.0000
  C   C909      1.0  0.66617  0.56442  0.22700  1.0000
  C   C910      1.0  0.65766  0.10797  0.27879  1.0000
  C   C911      1.0  0.60493  0.13845  0.15867  1.0000
  C   C912      1.0  0.66789  0.15898  0.16602  1.0000
  C   C913      1.0  0.57930  0.08098  0.30575  1.0000
  C   C914      1.0  0.60388  0.12818  0.30710  1.0000
  C   C915      1.0  0.55264  0.12428  0.33455  1.0000
  C   C916      1.0  0.59311  0.16484  0.40364  1.0000
  C   C917      1.0  0.65763  0.07802  0.36896  1.0000
  C   C918      1.0  0.65442  0.10740  0.42521  1.0000
  C   C919      1.0  0.63544  0.13749  0.28546  1.0000
  C   C920      1.0  0.68832  0.17213  0.28670  1.0000
  C   C921      1.0  0.56325  0.57446  0.43235  1.0000
  C   C922      1.0  0.59367  0.09226  0.46686  1.0000
  C   C923      1.0  0.57776  0.15623  0.48886  1.0000
  C   C924      1.0  0.64627  0.17024  0.56235  1.0000
  C   C925      1.0  0.64714  0.58090  0.51181  1.0000
  C   C926      1.0  0.67687  0.11551  0.52385  1.0000
  C   C927      1.0  0.62496  0.15038  0.39376  1.0000
  C   C928      1.0  0.68337  0.15339  0.47180  1.0000
  C   C929      1.0  0.56659  0.57783  0.56746  1.0000
  C   C930      1.0  0.59892  0.12065  0.61665  1.0000
  C   C931      1.0  0.55960  0.12635  0.66956  1.0000
  C   C932      1.0  0.60704  0.18113  0.67863  1.0000
  C   C933      1.0  0.64261  0.56986  0.66166  1.0000
  C   C934      1.0  0.70017  0.08852  0.68847  1.0000
  C   C935      1.0  0.66628  0.13813  0.56568  1.0000
  C   C936      1.0  0.66431  0.18378  0.60683  1.0000
  C   C937      1.0  0.57697  0.57199  0.68539  1.0000
  C   C938      1.0  0.58695  0.09418  0.75247  1.0000
  C   C939      1.0  0.58720  0.13915  0.78229  1.0000
  C   C940      1.0  0.61205  0.15825  0.82236  1.0000
  C   C941      1.0  0.62405  0.07465  0.76436  1.0000
  C   C942      1.0  0.66775  0.10119  0.82559  1.0000
  C   C943      1.0  0.64293  0.13692  0.72097  1.0000
  C   C944      1.0  0.68040  0.17568  0.75434  1.0000
  C   C945      1.0  0.57392  0.55920  0.87704  1.0000
  C   C946      1.0  0.60462  0.09255  0.90967  1.0000
  C   C947      1.0  0.57503  0.12338  0.92295  1.0000
  C   C948      1.0  0.61368  0.16561  0.98205  1.0000
  C   C949      1.0  0.64392  0.55239  0.94520  1.0000
  C   C950      1.0  0.65671  0.07220  0.94994  1.0000
  C   C951      1.0  0.64864  0.11334  0.84400  1.0000
  C   C952      1.0  0.69089  0.18451  0.90296  1.0000
  C   C953      1.0  0.56028  0.19952  0.01428  1.0000
  C   C954      1.0  0.60365  0.24083  0.03575  1.0000
  C   C955      1.0  0.53661  0.25116  0.08155  1.0000
  C   C956      1.0  0.59791  0.27996  0.11438  1.0000
  C   C957      1.0  0.63076  0.21393  0.05742  1.0000
  C   C958      1.0  0.68416  0.22179  0.11982  1.0000
  C   C959      1.0  0.63056  0.26267  0.99004  1.0000
  C   C960      1.0  0.68284  0.29340  0.04291  1.0000
  C   C961      1.0  0.56820  0.19281  0.15872  1.0000
  C   C962      1.0  0.61265  0.24831  0.16349  1.0000
  C   C963      1.0  0.59319  0.26305  0.20931  1.0000
  C   C964      1.0  0.58942  0.27721  0.25197  1.0000
  C   C965      1.0  0.65266  0.20002  0.22316  1.0000
  C   C966      1.0  0.66081  0.23239  0.24471  1.0000
  C   C967      1.0  0.66129  0.24592  0.12269  1.0000
  C   C968      1.0  0.67750  0.29538  0.17217  1.0000
  C   C969      1.0  0.57226  0.20475  0.27633  1.0000
  C   C970      1.0  0.63140  0.21368  0.33142  1.0000
  C   C971      1.0  0.52998  0.27512  0.34064  1.0000
  C   C972      1.0  0.60822  0.29445  0.37826  1.0000
  C   C973      1.0  0.63679  0.19030  0.34869  1.0000
  C   C974      1.0  0.68812  0.20745  0.39970  1.0000
  C   C975      1.0  0.62912  0.27175  0.28796  1.0000
  C   C976      1.0  0.68595  0.29283  0.32451  1.0000
  C   C977      1.0  0.56563  0.19832  0.43437  1.0000
  C   C978      1.0  0.62303  0.23731  0.45671  1.0000
  C   C979      1.0  0.54689  0.25757  0.49933  1.0000
  C   C980      1.0  0.60156  0.30935  0.55183  1.0000
  C   C981      1.0  0.64536  0.18329  0.50190  1.0000
  C   C982      1.0  0.67034  0.20667  0.52976  1.0000
  C   C983      1.0  0.63268  0.26824  0.39801  1.0000
  C   C984      1.0  0.65064  0.29620  0.48458  1.0000
  C   C985      1.0  0.57159  0.19950  0.57279  1.0000
  C   C986      1.0  0.59758  0.20528  0.60279  1.0000
  C   C987      1.0  0.56331  0.24549  0.66992  1.0000
  C   C988      1.0  0.58932  0.30362  0.71108  1.0000
  C   C989      1.0  0.64025  0.19318  0.63259  1.0000
  C   C990      1.0  0.68766  0.23330  0.67921  1.0000
  C   C991      1.0  0.60594  0.26604  0.56574  1.0000
  C   C992      1.0  0.68538  0.27782  0.60401  1.0000
  C   C993      1.0  0.57207  0.20294  0.72162  1.0000
  C   C994      1.0  0.58872  0.24202  0.75789  1.0000
  C   C995      1.0  0.55115  0.26265  0.78621  1.0000
  C   C996      1.0  0.60454  0.26838  0.82292  1.0000
  C   C997      1.0  0.65733  0.17641  0.79005  1.0000
  C   C998      1.0  0.70585  0.22489  0.84247  1.0000
  C   C999      1.0  0.67719  0.26441  0.72951  1.0000
  C   C1000     1.0  0.69811  0.28788  0.75402  1.0000
  C   C1001     1.0  0.58584  0.21058  0.85640  1.0000
  C   C1002     1.0  0.59978  0.25035  0.92624  1.0000
  C   C1003     1.0  0.58220  0.27316  0.91338  1.0000
  C   C1004     1.0  0.59229  0.28779  0.97300  1.0000
  C   C1005     1.0  0.65537  0.20230  0.92158  1.0000
  C   C1006     1.0  0.67771  0.23755  0.95908  1.0000
  C   C1007     1.0  0.63178  0.28989  0.84036  1.0000
  C   C1008     1.0  0.67631  0.31683  0.89257  1.0000
  C   C1009     1.0  0.59077  0.33643  0.98901  1.0000
  C   C1010     1.0  0.60289  0.34593  0.04121  1.0000
  C   C1011     1.0  0.58083  0.38172  0.08002  1.0000
  C   C1012     1.0  0.59913  0.38441  0.07393  1.0000
  C   C1013     1.0  0.65089  0.34593  0.09922  1.0000
  C   C1014     1.0  0.65998  0.36915  0.10485  1.0000
  C   C1015     1.0  0.64056  0.36631  0.01146  1.0000
  C   C1016     1.0  0.67691  0.42325  0.04803  1.0000
  C   C1017     1.0  0.57466  0.31006  0.16646  1.0000
  C   C1018     1.0  0.57865  0.35837  0.17114  1.0000
  C   C1019     1.0  0.59435  0.38011  0.18885  1.0000
  C   C1020     1.0  0.61221  0.40617  0.21140  1.0000
  C   C1021     1.0  0.62418  0.32555  0.19796  1.0000
  C   C1022     1.0  0.70362  0.34409  0.23632  1.0000
  C   C1023     1.0  0.63203  0.39516  0.15327  1.0000
  C   C1024     1.0  0.67033  0.42361  0.15034  1.0000
  C   C1025     1.0  0.58379  0.33087  0.28701  1.0000
  C   C1026     1.0  0.61874  0.36329  0.30788  1.0000
  C   C1027     1.0  0.56176  0.39712  0.37258  1.0000
  C   C1028     1.0  0.58691  0.42447  0.37245  1.0000
  C   C1029     1.0  0.66356  0.34065  0.33908  1.0000
  C   C1030     1.0  0.69852  0.34464  0.38550  1.0000
  C   C1031     1.0  0.65104  0.41366  0.26701  1.0000
  C   C1032     1.0  0.69574  0.42385  0.31385  1.0000
  C   C1033     1.0  0.56445  0.32667  0.42316  1.0000
  C   C1034     1.0  0.59993  0.36110  0.45600  1.0000
  C   C1035     1.0  0.59202  0.41247  0.50813  1.0000
  C   C1036     1.0  0.60968  0.43980  0.52335  1.0000
  C   C1037     1.0  0.64956  0.33238  0.52425  1.0000
  C   C1038     1.0  0.65742  0.36558  0.55358  1.0000
  C   C1039     1.0  0.64123  0.39686  0.42839  1.0000
  C   C1040     1.0  0.65460  0.40962  0.46781  1.0000
  C   C1041     1.0  0.59606  0.30434  0.56510  1.0000
  C   C1042     1.0  0.62736  0.36146  0.60883  1.0000
  C   C1043     1.0  0.57142  0.38042  0.61484  1.0000
  C   C1044     1.0  0.61555  0.43795  0.71043  1.0000
  C   C1045     1.0  0.65885  0.29020  0.64438  1.0000
  C   C1046     1.0  0.66606  0.36344  0.68912  1.0000
  C   C1047     1.0  0.62282  0.40176  0.57407  1.0000
  C   C1048     1.0  0.69184  0.43167  0.61693  1.0000
  C   C1049     1.0  0.55368  0.32699  0.72681  1.0000
  C   C1050     1.0  0.60173  0.37702  0.73018  1.0000
  C   C1051     1.0  0.57128  0.40109  0.80608  1.0000
  C   C1052     1.0  0.60188  0.46641  0.82835  1.0000
  C   C1053     1.0  0.62956  0.30820  0.77015  1.0000
  C   C1054     1.0  0.67248  0.36335  0.81616  1.0000
  C   C1055     1.0  0.67177  0.41394  0.73149  1.0000
  C   C1056     1.0  0.71011  0.41715  0.74307  1.0000
  C   C1057     1.0  0.57501  0.32948  0.86081  1.0000
  C   C1058     1.0  0.63690  0.38346  0.89670  1.0000
  C   C1059     1.0  0.55893  0.37086  0.94460  1.0000
  C   C1060     1.0  0.64525  0.43382  0.96062  1.0000
  C   C1061     1.0  0.63614  0.31800  0.93829  1.0000
  C   C1062     1.0  0.67515  0.37882  0.93077  1.0000
  C   C1063     1.0  0.63728  0.40099  0.85153  1.0000
  C   C1064     1.0  0.67320  0.42760  0.89442  1.0000
  C   C1065     1.0  0.55177  0.45596  0.99076  1.0000
  C   C1066     1.0  0.61214  0.46726  0.03522  1.0000
  C   C1067     1.0  0.54812  0.49951  0.06780  1.0000
  C   C1068     1.0  0.60245  0.57770  0.10809  1.0000
  C   C1069     1.0  0.66359  0.48171  0.05544  1.0000
  C   C1070     1.0  0.68937  0.49028  0.08665  1.0000
  C   C1071     1.0  0.64345  0.51179  0.97239  1.0000
  C   C1072     1.0  0.68606  0.55708  0.03594  1.0000
  C   C1073     1.0  0.56824  0.45722  0.14988  1.0000
  C   C1074     1.0  0.57633  0.49974  0.16266  1.0000
  C   C1075     1.0  0.58884  0.51812  0.21091  1.0000
  C   C1076     1.0  0.60512  0.57702  0.27174  1.0000
  C   C1077     1.0  0.63843  0.45518  0.22243  1.0000
  C   C1078     1.0  0.67634  0.48851  0.24111  1.0000
  C   C1079     1.0  0.66840  0.50237  0.11872  1.0000
  C   C1080     1.0  0.66069  0.54397  0.17613  1.0000
  C   C1081     1.0  0.56332  0.47457  0.26410  1.0000
  C   C1082     1.0  0.59483  0.50443  0.31711  1.0000
  C   C1083     1.0  0.57535  0.53812  0.34853  1.0000
  C   C1084     1.0  0.61227  0.54390  0.37016  1.0000
  C   C1085     1.0  0.63243  0.45476  0.37454  1.0000
  C   C1086     1.0  0.69111  0.49783  0.40247  1.0000
  C   C1087     1.0  0.63979  0.52088  0.28200  1.0000
  C   C1088     1.0  0.68179  0.58026  0.32570  1.0000
  C   C1089     1.0  0.57314  0.46798  0.43224  1.0000
  C   C1090     1.0  0.59127  0.48659  0.47999  1.0000
  C   C1091     1.0  0.57807  0.51951  0.49054  1.0000
  C   C1092     1.0  0.59674  0.54829  0.53721  1.0000
  C   C1093     1.0  0.62938  0.46149  0.51440  1.0000
  C   C1094     1.0  0.62471  0.50558  0.54280  1.0000
  C   C1095     1.0  0.64658  0.53056  0.41133  1.0000
  C   C1096     1.0  0.68818  0.53576  0.46271  1.0000
  C   C1097     1.0  0.56263  0.46578  0.57776  1.0000
  C   C1098     1.0  0.61124  0.49550  0.62749  1.0000
  C   C1099     1.0  0.57960  0.52112  0.66069  1.0000
  C   C1100     1.0  0.60637  0.54685  0.69200  1.0000
  C   C1101     1.0  0.65287  0.47391  0.63019  1.0000
  C   C1102     1.0  0.66848  0.48411  0.69429  1.0000
  C   C1103     1.0  0.66532  0.53269  0.57066  1.0000
  C   C1104     1.0  0.67012  0.54263  0.56293  1.0000
  C   C1105     1.0  0.57636  0.43151  0.69620  1.0000
  C   C1106     1.0  0.59908  0.50377  0.74550  1.0000
  C   C1107     1.0  0.57838  0.54471  0.78649  1.0000
  C   C1108     1.0  0.59416  0.56677  0.83421  1.0000
  C   C1109     1.0  0.63530  0.48445  0.78012  1.0000
  C   C1110     1.0  0.68306  0.49319  0.80515  1.0000
  C   C1111     1.0  0.63233  0.51921  0.72804  1.0000
  C   C1112     1.0  0.69071  0.55806  0.72368  1.0000
  C   C1113     1.0  0.57396  0.45713  0.87727  1.0000
  C   C1114     1.0  0.60884  0.51287  0.90702  1.0000
  C   C1115     1.0  0.57672  0.51426  0.93325  1.0000
  C   C1116     1.0  0.59797  0.56275  0.93862  1.0000
  C   C1117     1.0  0.63664  0.45457  0.90006  1.0000
  C   C1118     1.0  0.68210  0.49781  0.97232  1.0000
  C   C1119     1.0  0.64455  0.51046  0.84527  1.0000
  C   C1120     1.0  0.67973  0.56388  0.89432  1.0000
  C   C1121     1.0  0.68849  0.57921  0.99495  1.0000
  C   C1122     1.0  0.75457  0.09280  0.03536  1.0000
  C   C1123     1.0  0.71570  0.13194  0.09204  1.0000
  C   C1124     1.0  0.75643  0.17838  0.09861  1.0000
  C   C1125     1.0  0.79061  0.55734  0.09697  1.0000
  C   C1126     1.0  0.81697  0.11385  0.08899  1.0000
  C   C1127     1.0  0.81202  0.11898  0.98888  1.0000
  C   C1128     1.0  0.81823  0.16471  0.02055  1.0000
  C   C1129     1.0  0.71004  0.08978  0.14713  1.0000
  C   C1130     1.0  0.77003  0.12004  0.18037  1.0000
  C   C1131     1.0  0.72110  0.13954  0.20222  1.0000
  C   C1132     1.0  0.75304  0.17677  0.24558  1.0000
  C   C1133     1.0  0.78958  0.56895  0.23198  1.0000
  C   C1134     1.0  0.81541  0.08636  0.26443  1.0000
  C   C1135     1.0  0.79960  0.13839  0.15187  1.0000
  C   C1136     1.0  0.83115  0.16825  0.18304  1.0000
  C   C1137     1.0  0.71552  0.09450  0.28387  1.0000
  C   C1138     1.0  0.72294  0.10096  0.35039  1.0000
  C   C1139     1.0  0.70235  0.11850  0.35395  1.0000
  C   C1140     1.0  0.78016  0.15284  0.39431  1.0000
  C   C1141     1.0  0.75089  0.58356  0.34184  1.0000
  C   C1142     1.0  0.84408  0.08165  0.38653  1.0000
  C   C1143     1.0  0.77137  0.15210  0.30963  1.0000
  C   C1144     1.0  0.81426  0.17041  0.32100  1.0000
  C   C1145     1.0  0.72311  0.57164  0.39578  1.0000
  C   C1146     1.0  0.74555  0.09475  0.45390  1.0000
  C   C1147     1.0  0.70408  0.11721  0.50653  1.0000
  C   C1148     1.0  0.75295  0.16513  0.52981  1.0000
  C   C1149     1.0  0.77649  0.56890  0.51225  1.0000
  C   C1150     1.0  0.84121  0.09004  0.52587  1.0000
  C   C1151     1.0  0.76154  0.13794  0.44957  1.0000
  C   C1152     1.0  0.82182  0.17981  0.42785  1.0000
  C   C1153     1.0  0.68024  0.09027  0.55522  1.0000
  C   C1154     1.0  0.74148  0.09535  0.63402  1.0000
  C   C1155     1.0  0.70304  0.11739  0.67102  1.0000
  C   C1156     1.0  0.74988  0.16723  0.65601  1.0000
  C   C1157     1.0  0.79890  0.07752  0.64088  1.0000
  C   C1158     1.0  0.81148  0.11379  0.68002  1.0000
  C   C1159     1.0  0.78028  0.11301  0.57494  1.0000
  C   C1160     1.0  0.85292  0.16679  0.61772  1.0000
  C   C1161     1.0  0.71404  0.58245  0.72483  1.0000
  C   C1162     1.0  0.74134  0.09289  0.73025  1.0000
  C   C1163     1.0  0.72280  0.15764  0.76258  1.0000
  C   C1164     1.0  0.74762  0.15831  0.81844  1.0000
  C   C1165     1.0  0.78621  0.58411  0.79286  1.0000
  C   C1166     1.0  0.82341  0.11038  0.80386  1.0000
  C   C1167     1.0  0.80010  0.12843  0.71134  1.0000
  C   C1168     1.0  0.82226  0.16238  0.74752  1.0000
  C   C1169     1.0  0.72618  0.08548  0.86409  1.0000
  C   C1170     1.0  0.75758  0.08449  0.89630  1.0000
  C   C1171     1.0  0.68536  0.11350  0.91075  1.0000
  C   C1172     1.0  0.79419  0.16463  0.94360  1.0000
  C   C1173     1.0  0.80067  0.08497  0.93284  1.0000
  C   C1174     1.0  0.83114  0.08987  0.98010  1.0000
  C   C1175     1.0  0.76233  0.12581  0.85190  1.0000
  C   C1176     1.0  0.79850  0.15825  0.92313  1.0000
  C   C1177     1.0  0.69252  0.21655  0.97596  1.0000
  C   C1178     1.0  0.73969  0.25628  0.05362  1.0000
  C   C1179     1.0  0.69674  0.28101  0.06528  1.0000
  C   C1180     1.0  0.76462  0.30508  0.10951  1.0000
  C   C1181     1.0  0.78671  0.19360  0.09806  1.0000
  C   C1182     1.0  0.81695  0.21856  0.11438  1.0000
  C   C1183     1.0  0.77057  0.26195  0.00611  1.0000
  C   C1184     1.0  0.81577  0.28396  0.03653  1.0000
  C   C1185     1.0  0.71273  0.19430  0.13011  1.0000
  C   C1186     1.0  0.76347  0.24746  0.17598  1.0000
  C   C1187     1.0  0.70295  0.26082  0.19609  1.0000
  C   C1188     1.0  0.74395  0.29511  0.24580  1.0000
  C   C1189     1.0  0.78238  0.19357  0.23764  1.0000
  C   C1190     1.0  0.81272  0.22068  0.28425  1.0000
  C   C1191     1.0  0.75546  0.28101  0.13734  1.0000
  C   C1192     1.0  0.84352  0.32733  0.19635  1.0000
  C   C1193     1.0  0.70473  0.19185  0.26724  1.0000
  C   C1194     1.0  0.75484  0.24785  0.31092  1.0000
  C   C1195     1.0  0.75059  0.25876  0.32870  1.0000
  C   C1196     1.0  0.76878  0.30592  0.40708  1.0000
  C   C1197     1.0  0.76606  0.20209  0.35109  1.0000
  C   C1198     1.0  0.83878  0.24529  0.38818  1.0000
  C   C1199     1.0  0.78816  0.23741  0.27976  1.0000
  C   C1200     1.0  0.82022  0.30205  0.33745  1.0000
  C   C1201     1.0  0.69745  0.19844  0.45848  1.0000
  C   C1202     1.0  0.77458  0.25016  0.45701  1.0000
  C   C1203     1.0  0.69613  0.26407  0.49062  1.0000
  C   C1204     1.0  0.75673  0.30438  0.56433  1.0000
  C   C1205     1.0  0.77697  0.21582  0.52708  1.0000
  C   C1206     1.0  0.82615  0.23399  0.49418  1.0000
  C   C1207     1.0  0.79589  0.27186  0.45576  1.0000
  C   C1208     1.0  0.80694  0.29834  0.45407  1.0000
  C   C1209     1.0  0.69541  0.25044  0.56742  1.0000
  C   C1210     1.0  0.77950  0.19563  0.61794  1.0000
  C   C1211     1.0  0.70466  0.27628  0.63918  1.0000
  C   C1212     1.0  0.74945  0.29696  0.67372  1.0000
  C   C1213     1.0  0.79267  0.20829  0.66123  1.0000
  C   C1214     1.0  0.82436  0.23364  0.68015  1.0000
  C   C1215     1.0  0.78426  0.24510  0.55949  1.0000
  C   C1216     1.0  0.82916  0.30893  0.60795  1.0000
  C   C1217     1.0  0.72768  0.17552  0.72357  1.0000
  C   C1218     1.0  0.75037  0.22973  0.74618  1.0000
  C   C1219     1.0  0.70694  0.26618  0.79951  1.0000
  C   C1220     1.0  0.76196  0.30248  0.80727  1.0000
  C   C1221     1.0  0.76404  0.21747  0.76045  1.0000
  C   C1222     1.0  0.80522  0.21884  0.82296  1.0000
  C   C1223     1.0  0.78079  0.25946  0.69469  1.0000
  C   C1224     1.0  0.78403  0.31316  0.76586  1.0000
  C   C1225     1.0  0.70934  0.20448  0.84467  1.0000
  C   C1226     1.0  0.76211  0.25156  0.89885  1.0000
  C   C1227     1.0  0.68512  0.24478  0.96120  1.0000
  C   C1228     1.0  0.76907  0.27671  0.97819  1.0000
  C   C1229     1.0  0.75964  0.19643  0.91421  1.0000
  C   C1230     1.0  0.83192  0.24181  0.94991  1.0000
  C   C1231     1.0  0.78516  0.27702  0.89117  1.0000
  C   C1232     1.0  0.82889  0.30564  0.87950  1.0000
  C   C1233     1.0  0.71206  0.35710  0.00903  1.0000
  C   C1234     1.0  0.75297  0.36061  0.06540  1.0000
  C   C1235     1.0  0.71280  0.37887  0.06638  1.0000
  C   C1236     1.0  0.75543  0.42963  0.09561  1.0000
  C   C1237     1.0  0.79972  0.33483  0.08991  1.0000
  C   C1238     1.0  0.82706  0.33927  0.09412  1.0000
  C   C1239     1.0  0.79573  0.37705  0.00054  1.0000
  C   C1240     1.0  0.80515  0.42244  0.07116  1.0000
  C   C1241     1.0  0.68324  0.33816  0.16996  1.0000
  C   C1242     1.0  0.74717  0.37191  0.19088  1.0000
  C   C1243     1.0  0.71258  0.38081  0.19569  1.0000
  C   C1244     1.0  0.75798  0.44023  0.24638  1.0000
  C   C1245     1.0  0.77152  0.33756  0.20677  1.0000
  C   C1246     1.0  0.82059  0.37204  0.23671  1.0000
  C   C1247     1.0  0.79069  0.36140  0.15962  1.0000
  C   C1248     1.0  0.82563  0.40550  0.18457  1.0000
  C   C1249     1.0  0.71501  0.32771  0.27106  1.0000
  C   C1250     1.0  0.77315  0.34844  0.32387  1.0000
  C   C1251     1.0  0.71786  0.37825  0.36212  1.0000
  C   C1252     1.0  0.75446  0.42152  0.40522  1.0000
  C   C1253     1.0  0.78185  0.32008  0.39010  1.0000
  C   C1254     1.0  0.82150  0.36196  0.39272  1.0000
  C   C1255     1.0  0.79262  0.37461  0.25994  1.0000
  C   C1256     1.0  0.81431  0.42037  0.31408  1.0000
  C   C1257     1.0  0.70557  0.34157  0.41837  1.0000
  C   C1258     1.0  0.77259  0.36134  0.46944  1.0000
  C   C1259     1.0  0.71990  0.38423  0.48870  1.0000
  C   C1260     1.0  0.75685  0.42494  0.55499  1.0000
  C   C1261     1.0  0.78524  0.32097  0.49259  1.0000
  C   C1262     1.0  0.82369  0.36290  0.53088  1.0000
  C   C1263     1.0  0.79397  0.41520  0.43471  1.0000
  C   C1264     1.0  0.81397  0.42120  0.45906  1.0000
  C   C1265     1.0  0.68804  0.32486  0.57993  1.0000
  C   C1266     1.0  0.74259  0.34381  0.59284  1.0000
  C   C1267     1.0  0.74012  0.39991  0.62762  1.0000
  C   C1268     1.0  0.75756  0.41303  0.68931  1.0000
  C   C1269     1.0  0.76206  0.33071  0.65322  1.0000
  C   C1270     1.0  0.83728  0.35469  0.66182  1.0000
  C   C1271     1.0  0.78934  0.39990  0.55673  1.0000
  C   C1272     1.0  0.81896  0.41376  0.62364  1.0000
  C   C1273     1.0  0.70479  0.34170  0.70150  1.0000
  C   C1274     1.0  0.76685  0.37208  0.72479  1.0000
  C   C1275     1.0  0.69637  0.38926  0.76449  1.0000
  C   C1276     1.0  0.73332  0.42255  0.82364  1.0000
  C   C1277     1.0  0.80459  0.30261  0.80179  1.0000
  C   C1278     1.0  0.81341  0.34152  0.81420  1.0000
  C   C1279     1.0  0.80533  0.37164  0.71894  1.0000
  C   C1280     1.0  0.79978  0.39148  0.75620  1.0000
  C   C1281     1.0  0.71126  0.34657  0.85254  1.0000
  C   C1282     1.0  0.72080  0.37446  0.89883  1.0000
  C   C1283     1.0  0.71207  0.39848  0.94711  1.0000
  C   C1284     1.0  0.76313  0.40487  0.95698  1.0000
  C   C1285     1.0  0.78833  0.32623  0.92873  1.0000
  C   C1286     1.0  0.81749  0.33729  0.97286  1.0000
  C   C1287     1.0  0.78203  0.36922  0.88016  1.0000
  C   C1288     1.0  0.81388  0.42965  0.87702  1.0000
  C   C1289     1.0  0.71467  0.45143  0.02625  1.0000
  C   C1290     1.0  0.72505  0.49369  0.03102  1.0000
  C   C1291     1.0  0.72234  0.52074  0.06175  1.0000
  C   C1292     1.0  0.76061  0.55002  0.12024  1.0000
  C   C1293     1.0  0.79128  0.44654  0.08147  1.0000
  C   C1294     1.0  0.79010  0.47919  0.11284  1.0000
  C   C1295     1.0  0.80416  0.50939  0.98220  1.0000
  C   C1296     1.0  0.84069  0.56914  0.04150  1.0000
  C   C1297     1.0  0.71472  0.44379  0.14912  1.0000
  C   C1298     1.0  0.73742  0.46454  0.13616  1.0000
  C   C1299     1.0  0.72137  0.52235  0.17735  1.0000
  C   C1300     1.0  0.73527  0.53669  0.23083  1.0000
  C   C1301     1.0  0.75822  0.45827  0.20860  1.0000
  C   C1302     1.0  0.80841  0.44652  0.27228  1.0000
  C   C1303     1.0  0.77626  0.53746  0.14534  1.0000
  C   C1304     1.0  0.81320  0.54230  0.17893  1.0000
  C   C1305     1.0  0.72625  0.44444  0.29483  1.0000
  C   C1306     1.0  0.72509  0.48608  0.33486  1.0000
  C   C1307     1.0  0.74193  0.55779  0.35256  1.0000
  C   C1308     1.0  0.73864  0.53647  0.37256  1.0000
  C   C1309     1.0  0.76362  0.46800  0.35931  1.0000
  C   C1310     1.0  0.83151  0.47674  0.39940  1.0000
  C   C1311     1.0  0.78814  0.53008  0.28290  1.0000
  C   C1312     1.0  0.82051  0.54371  0.33576  1.0000
  C   C1313     1.0  0.70985  0.44461  0.39689  1.0000
  C   C1314     1.0  0.75964  0.47621  0.46597  1.0000
  C   C1315     1.0  0.71165  0.54215  0.49067  1.0000
  C   C1316     1.0  0.75053  0.57537  0.52839  1.0000
  C   C1317     1.0  0.78854  0.44050  0.51525  1.0000
  C   C1318     1.0  0.83082  0.48589  0.55259  1.0000
  C   C1319     1.0  0.78823  0.53977  0.39497  1.0000
  C   C1320     1.0  0.83896  0.55230  0.49470  1.0000
  C   C1321     1.0  0.73094  0.46535  0.59172  1.0000
  C   C1322     1.0  0.73295  0.49425  0.61568  1.0000
  C   C1323     1.0  0.68669  0.51993  0.66011  1.0000
  C   C1324     1.0  0.75824  0.55193  0.69647  1.0000
  C   C1325     1.0  0.78626  0.46542  0.62068  1.0000
  C   C1326     1.0  0.82696  0.49140  0.65030  1.0000
  C   C1327     1.0  0.76393  0.53546  0.56657  1.0000
  C   C1328     1.0  0.84128  0.56693  0.59614  1.0000
  C   C1329     1.0  0.69542  0.45374  0.71005  1.0000
  C   C1330     1.0  0.73398  0.49052  0.75918  1.0000
  C   C1331     1.0  0.74447  0.51795  0.78428  1.0000
  C   C1332     1.0  0.77249  0.57273  0.81955  1.0000
  C   C1333     1.0  0.77877  0.44719  0.79703  1.0000
  C   C1334     1.0  0.81669  0.47917  0.81865  1.0000
  C   C1335     1.0  0.79571  0.52414  0.72108  1.0000
  C   C1336     1.0  0.84248  0.54963  0.74071  1.0000
  C   C1337     1.0  0.74777  0.44884  0.86045  1.0000
  C   C1338     1.0  0.72240  0.49363  0.89385  1.0000
  C   C1339     1.0  0.74733  0.50397  0.89155  1.0000
  C   C1340     1.0  0.73316  0.54086  0.94162  1.0000
  C   C1341     1.0  0.79487  0.46397  0.91656  1.0000
  C   C1342     1.0  0.82686  0.48324  0.96585  1.0000
  C   C1343     1.0  0.77947  0.53586  0.85289  1.0000
  C   C1344     1.0  0.82336  0.56315  0.88940  1.0000
  C   C1345     1.0  0.85571  0.09494  0.01273  1.0000
  C   C1346     1.0  0.90384  0.09747  0.05271  1.0000
  C   C1347     1.0  0.87068  0.14059  0.07811  1.0000
  C   C1348     1.0  0.88948  0.19066  0.09440  1.0000
  C   C1349     1.0  0.93976  0.57610  0.06148  1.0000
  C   C1350     1.0  0.96411  0.10968  0.11731  1.0000
  C   C1351     1.0  0.92740  0.13404  0.02821  1.0000
  C   C1352     1.0  0.95130  0.16486  0.04541  1.0000
  C   C1353     1.0  0.85305  0.08085  0.12135  1.0000
  C   C1354     1.0  0.89154  0.09360  0.18619  1.0000
  C   C1355     1.0  0.84843  0.15433  0.21426  1.0000
  C   C1356     1.0  0.90882  0.17078  0.27752  1.0000
  C   C1357     1.0  0.91983  0.57143  0.22101  1.0000
  C   C1358     1.0  0.93991  0.09574  0.23668  1.0000
  C   C1359     1.0  0.92351  0.12757  0.11659  1.0000
  C   C1360     1.0  0.94403  0.17447  0.19299  1.0000
  C   C1361     1.0  0.83958  0.58089  0.29636  1.0000
  C   C1362     1.0  0.89625  0.12463  0.33805  1.0000
  C   C1363     1.0  0.83581  0.14676  0.36392  1.0000
  C   C1364     1.0  0.90099  0.18450  0.41137  1.0000
  C   C1365     1.0  0.93397  0.58234  0.35300  1.0000
  C   C1366     1.0  0.97208  0.10317  0.41348  1.0000
  C   C1367     1.0  0.93205  0.12880  0.27976  1.0000
  C   C1368     1.0  0.98255  0.18544  0.30164  1.0000
  C   C1369     1.0  0.82380  0.07947  0.42348  1.0000
  C   C1370     1.0  0.88006  0.08160  0.47079  1.0000
  C   C1371     1.0  0.85996  0.14142  0.47155  1.0000
  C   C1372     1.0  0.89796  0.16236  0.53331  1.0000
  C   C1373     1.0  0.91579  0.55369  0.50233  1.0000
  C   C1374     1.0  0.96171  0.10393  0.55101  1.0000
  C   C1375     1.0  0.92499  0.12098  0.42815  1.0000
  C   C1376     1.0  0.96827  0.16668  0.46666  1.0000
  C   C1377     1.0  0.85668  0.07284  0.55276  1.0000
  C   C1378     1.0  0.88607  0.10302  0.60274  1.0000
  C   C1379     1.0  0.84923  0.13912  0.61272  1.0000
  C   C1380     1.0  0.87762  0.18411  0.66591  1.0000
  C   C1381     1.0  0.93307  0.07291  0.63089  1.0000
  C   C1382     1.0  0.97520  0.10585  0.67427  1.0000
  C   C1383     1.0  0.94263  0.13856  0.56355  1.0000
  C   C1384     1.0  0.95545  0.20238  0.63257  1.0000
  C   C1385     1.0  0.86216  0.55754  0.71468  1.0000
  C   C1386     1.0  0.87493  0.11549  0.75614  1.0000
  C   C1387     1.0  0.85980  0.15206  0.75962  1.0000
  C   C1388     1.0  0.91045  0.17158  0.80537  1.0000
  C   C1389     1.0  0.94115  0.07905  0.79958  1.0000
  C   C1390     1.0  0.96476  0.09803  0.81296  1.0000
  C   C1391     1.0  0.95528  0.14243  0.71912  1.0000
  C   C1392     1.0  0.95496  0.17946  0.76497  1.0000
  C   C1393     1.0  0.82642  0.09042  0.81312  1.0000
  C   C1394     1.0  0.87919  0.09137  0.90886  1.0000
  C   C1395     1.0  0.86958  0.12623  0.93809  1.0000
  C   C1396     1.0  0.88397  0.16533  0.92895  1.0000
  C   C1397     1.0  0.93818  0.57119  0.93392  1.0000
  C   C1398     1.0  0.97483  0.09537  0.94216  1.0000
  C   C1399     1.0  0.92891  0.15017  0.86506  1.0000
  C   C1400     1.0  0.95902  0.17982  0.88747  1.0000
  C   C1401     1.0  0.85458  0.20437  0.00648  1.0000
  C   C1402     1.0  0.86979  0.23683  0.03927  1.0000
  C   C1403     1.0  0.84521  0.22911  0.06094  1.0000
  C   C1404     1.0  0.91169  0.32649  0.11918  1.0000
  C   C1405     1.0  0.94803  0.20159  0.07463  1.0000
  C   C1406     1.0  0.97028  0.21553  0.10655  1.0000
  C   C1407     1.0  0.93338  0.26439  0.00144  1.0000
  C   C1408     1.0  0.96089  0.29242  0.03986  1.0000
  C   C1409     1.0  0.85332  0.20838  0.14856  1.0000
  C   C1410     1.0  0.87887  0.23873  0.18246  1.0000
  C   C1411     1.0  0.84569  0.25852  0.22373  1.0000
  C   C1412     1.0  0.87160  0.30543  0.27060  1.0000
  C   C1413     1.0  0.92136  0.21657  0.21743  1.0000
  C   C1414     1.0  0.96175  0.23999  0.24610  1.0000
  C   C1415     1.0  0.92654  0.23820  0.16100  1.0000
  C   C1416     1.0  0.94923  0.28289  0.18507  1.0000
  C   C1417     1.0  0.85413  0.18786  0.28777  1.0000
  C   C1418     1.0  0.88445  0.22928  0.32198  1.0000
  C   C1419     1.0  0.85470  0.23917  0.36203  1.0000
  C   C1420     1.0  0.88492  0.30073  0.38196  1.0000
  C   C1421     1.0  0.92477  0.21259  0.33446  1.0000
  C   C1422     1.0  0.93933  0.22383  0.39501  1.0000
  C   C1423     1.0  0.92940  0.27117  0.28122  1.0000
  C   C1424     1.0  0.97963  0.27993  0.32469  1.0000
  C   C1425     1.0  0.87740  0.20262  0.41323  1.0000
  C   C1426     1.0  0.89386  0.22066  0.45689  1.0000
  C   C1427     1.0  0.84398  0.24976  0.47593  1.0000
  C   C1428     1.0  0.91029  0.31004  0.52778  1.0000
  C   C1429     1.0  0.89923  0.21073  0.47322  1.0000
  C   C1430     1.0  0.95568  0.23897  0.52772  1.0000
  C   C1431     1.0  0.94645  0.25928  0.42184  1.0000
  C   C1432     1.0  0.95997  0.30002  0.45355  1.0000
  C   C1433     1.0  0.83914  0.18580  0.56788  1.0000
  C   C1434     1.0  0.87493  0.20471  0.60874  1.0000
  C   C1435     1.0  0.86629  0.25466  0.64258  1.0000
  C   C1436     1.0  0.88757  0.29045  0.65921  1.0000
  C   C1437     1.0  0.91714  0.19363  0.64323  1.0000
  C   C1438     1.0  0.96036  0.26239  0.67669  1.0000
  C   C1439     1.0  0.94952  0.27927  0.55838  1.0000
  C   C1440     1.0  0.94636  0.31766  0.58537  1.0000
  C   C1441     1.0  0.83417  0.21226  0.71307  1.0000
  C   C1442     1.0  0.89597  0.23079  0.73843  1.0000
  C   C1443     1.0  0.83943  0.28012  0.79379  1.0000
  C   C1444     1.0  0.90194  0.27301  0.82002  1.0000
  C   C1445     1.0  0.92871  0.20989  0.79947  1.0000
  C   C1446     1.0  0.95559  0.23085  0.82501  1.0000
  C   C1447     1.0  0.94078  0.25965  0.68130  1.0000
  C   C1448     1.0  0.97759  0.27521  0.73511  1.0000
  C   C1449     1.0  0.86206  0.20364  0.90120  1.0000
  C   C1450     1.0  0.89582  0.25496  0.88361  1.0000
  C   C1451     1.0  0.87420  0.25142  0.93820  1.0000
  C   C1452     1.0  0.87148  0.28152  0.95402  1.0000
  C   C1453     1.0  0.92176  0.17635  0.90742  1.0000
  C   C1454     1.0  0.96475  0.24025  0.94675  1.0000
  C   C1455     1.0  0.95191  0.26757  0.85995  1.0000
  C   C1456     1.0  0.95651  0.30972  0.89051  1.0000
  C   C1457     1.0  0.83304  0.35412  0.00984  1.0000
  C   C1458     1.0  0.89791  0.32157  0.02450  1.0000
  C   C1459     1.0  0.85281  0.40079  0.07934  1.0000
  C   C1460     1.0  0.88229  0.42068  0.07505  1.0000
  C   C1461     1.0  0.92467  0.31784  0.06974  1.0000
  C   C1462     1.0  0.00441  0.37621  0.12390  1.0000
  C   C1463     1.0  0.93669  0.38804  0.99948  1.0000
  C   C1464     1.0  0.98426  0.40168  0.03417  1.0000
  C   C1465     1.0  0.85311  0.34656  0.15861  1.0000
  C   C1466     1.0  0.88010  0.36969  0.17738  1.0000
  C   C1467     1.0  0.84670  0.38986  0.20295  1.0000
  C   C1468     1.0  0.87139  0.39685  0.23251  1.0000
  C   C1469     1.0  0.91397  0.33128  0.21698  1.0000
  C   C1470     1.0  0.95001  0.35614  0.25032  1.0000
  C   C1471     1.0  0.93961  0.38921  0.14028  1.0000
  C   C1472     1.0  0.94069  0.41512  0.14079  1.0000
  C   C1473     1.0  0.89105  0.32883  0.30455  1.0000
  C   C1474     1.0  0.88959  0.37676  0.32329  1.0000
  C   C1475     1.0  0.87199  0.39319  0.37074  1.0000
  C   C1476     1.0  0.89044  0.41600  0.36651  1.0000
  C   C1477     1.0  0.94327  0.32928  0.35294  1.0000
  C   C1478     1.0  0.97618  0.35616  0.38652  1.0000
  C   C1479     1.0  0.94504  0.38380  0.27996  1.0000
  C   C1480     1.0  0.96500  0.40119  0.31846  1.0000
  C   C1481     1.0  0.83112  0.33473  0.42026  1.0000
  C   C1482     1.0  0.88048  0.33795  0.46641  1.0000
  C   C1483     1.0  0.86496  0.40764  0.48908  1.0000
  C   C1484     1.0  0.88420  0.42155  0.55435  1.0000
  C   C1485     1.0  0.91614  0.35199  0.52121  1.0000
  C   C1486     1.0  0.99505  0.37838  0.55570  1.0000
  C   C1487     1.0  0.92957  0.40093  0.44735  1.0000
  C   C1488     1.0  0.99300  0.41866  0.44693  1.0000
  C   C1489     1.0  0.87086  0.33387  0.55093  1.0000
  C   C1490     1.0  0.89235  0.36095  0.63009  1.0000
  C   C1491     1.0  0.84881  0.40035  0.63106  1.0000
  C   C1492     1.0  0.89177  0.43089  0.68243  1.0000
  C   C1493     1.0  0.93559  0.33506  0.65047  1.0000
  C   C1494     1.0  0.97139  0.36725  0.70366  1.0000
  C   C1495     1.0  0.90511  0.39339  0.57846  1.0000
  C   C1496     1.0  0.97030  0.43310  0.62898  1.0000
  C   C1497     1.0  0.83029  0.32343  0.72293  1.0000
  C   C1498     1.0  0.92555  0.35605  0.75219  1.0000
  C   C1499     1.0  0.85387  0.40570  0.75832  1.0000
  C   C1500     1.0  0.90298  0.42656  0.81128  1.0000
  C   C1501     1.0  0.95045  0.33608  0.73766  1.0000
  C   C1502     1.0  0.96922  0.37563  0.82722  1.0000
  C   C1503     1.0  0.91178  0.39638  0.72722  1.0000
  C   C1504     1.0  0.96547  0.41606  0.74834  1.0000
  C   C1505     1.0  0.86111  0.34444  0.85955  1.0000
  C   C1506     1.0  0.87974  0.33942  0.88088  1.0000
  C   C1507     1.0  0.86689  0.39909  0.91720  1.0000
  C   C1508     1.0  0.86950  0.44286  0.94544  1.0000
  C   C1509     1.0  0.92093  0.32297  0.93252  1.0000
  C   C1510     1.0  0.98348  0.37660  0.94420  1.0000
  C   C1511     1.0  0.93342  0.39711  0.85430  1.0000
  C   C1512     1.0  0.95086  0.41369  0.90005  1.0000
  C   C1513     1.0  0.85861  0.43957  0.01760  1.0000
  C   C1514     1.0  0.88473  0.50153  0.02760  1.0000
  C   C1515     1.0  0.84727  0.48804  0.05323  1.0000
  C   C1516     1.0  0.92864  0.56727  0.12040  1.0000
  C   C1517     1.0  0.92367  0.44544  0.08730  1.0000
  C   C1518     1.0  0.97051  0.48632  0.09592  1.0000
  C   C1519     1.0  0.89971  0.51827  0.99258  1.0000
  C   C1520     1.0  0.95097  0.52646  0.05200  1.0000
  C   C1521     1.0  0.86201  0.44509  0.12078  1.0000
  C   C1522     1.0  0.90279  0.47322  0.14362  1.0000
  C   C1523     1.0  0.85943  0.51193  0.19571  1.0000
  C   C1524     1.0  0.88547  0.55128  0.23420  1.0000
  C   C1525     1.0  0.90700  0.44761  0.21324  1.0000
  C   C1526     1.0  0.97456  0.47945  0.24028  1.0000
  C   C1527     1.0  0.88926  0.53588  0.14214  1.0000
  C   C1528     1.0  0.96517  0.56095  0.18129  1.0000
  C   C1529     1.0  0.85596  0.42656  0.27553  1.0000
  C   C1530     1.0  0.89385  0.49660  0.31353  1.0000
  C   C1531     1.0  0.83376  0.51548  0.35387  1.0000
  C   C1532     1.0  0.90270  0.56208  0.38488  1.0000
  C   C1533     1.0  0.95715  0.47116  0.34896  1.0000
  C   C1534     1.0  0.94868  0.47835  0.40242  1.0000
  C   C1535     1.0  0.91912  0.52175  0.28282  1.0000
  C   C1536     1.0  0.95582  0.56207  0.32795  1.0000
  C   C1537     1.0  0.85224  0.46795  0.45864  1.0000
  C   C1538     1.0  0.88596  0.47891  0.46073  1.0000
  C   C1539     1.0  0.83584  0.52559  0.51545  1.0000
  C   C1540     1.0  0.88959  0.55011  0.51434  1.0000
  C   C1541     1.0  0.94770  0.43791  0.49721  1.0000
  C   C1542     1.0  0.96304  0.49253  0.53561  1.0000
  C   C1543     1.0  0.92014  0.52531  0.40876  1.0000
  C   C1544     1.0  0.95599  0.54736  0.45428  1.0000
  C   C1545     1.0  0.85923  0.44478  0.57614  1.0000
  C   C1546     1.0  0.90374  0.49144  0.59355  1.0000
  C   C1547     1.0  0.85653  0.52912  0.64205  1.0000
  C   C1548     1.0  0.90015  0.57240  0.70206  1.0000
  C   C1549     1.0  0.95043  0.46837  0.62328  1.0000
  C   C1550     1.0  0.98016  0.50026  0.69427  1.0000
  C   C1551     1.0  0.95306  0.52475  0.57607  1.0000
  C   C1552     1.0  0.96828  0.55270  0.57040  1.0000
  C   C1553     1.0  0.84713  0.46187  0.70499  1.0000
  C   C1554     1.0  0.87636  0.48103  0.75157  1.0000
  C   C1555     1.0  0.84346  0.54122  0.77737  1.0000
  C   C1556     1.0  0.90656  0.55169  0.83274  1.0000
  C   C1557     1.0  0.91831  0.47070  0.78317  1.0000
  C   C1558     1.0  0.95921  0.49937  0.83117  1.0000
  C   C1559     1.0  0.91448  0.50436  0.74553  1.0000
  C   C1560     1.0  0.96295  0.53697  0.75665  1.0000
  C   C1561     1.0  0.85977  0.46748  0.85796  1.0000
  C   C1562     1.0  0.88759  0.49152  0.91453  1.0000
  C   C1563     1.0  0.85580  0.51660  0.92900  1.0000
  C   C1564     1.0  0.89660  0.54696  0.96489  1.0000
  C   C1565     1.0  0.91677  0.44436  0.92272  1.0000
  C   C1566     1.0  0.98039  0.50303  0.97252  1.0000
  C   C1567     1.0  0.92610  0.51954  0.83149  1.0000
  C   C1568     1.0  0.98246  0.54087  0.87805  1.0000
  Au  Au1       1.0  0.26672  0.58973  0.32683  1.0000
  Au  Au2       1.0  0.20006  0.67434  0.32683  1.0000
  Au  Au3       1.0  0.16674  0.58973  0.38455  1.0000
  Au  Au4       1.0  0.16674  0.58973  0.50000  1.0000
  Au  Au5       1.0  0.26672  0.58973  0.44228  1.0000
  Au  Au6       1.0  0.20006  0.67434  0.44228  1.0000
  Au  Au7       1.0  0.26672  0.58973  0.55772  1.0000
  Au  Au8       1.0  0.20006  0.67434  0.55772  1.0000
  Au  Au9       1.0  0.16674  0.58973  0.61545  1.0000
  Au  Au10      1.0  0.26672  0.58973  0.67317  1.0000
  Au  Au11      1.0  0.20006  0.67434  0.67317  1.0000
  Au  Au12      1.0  0.46667  0.58973  0.21138  1.0000
  Au  Au13      1.0  0.30004  0.67434  0.26911  1.0000
  Au  Au14      1.0  0.40002  0.67434  0.21138  1.0000
  Au  Au15      1.0  0.33337  0.75895  0.21138  1.0000
  Au  Au16      1.0  0.36669  0.58973  0.26911  1.0000
  Au  Au17      1.0  0.36669  0.58973  0.38455  1.0000
  Au  Au18      1.0  0.46667  0.58973  0.32683  1.0000
  Au  Au19      1.0  0.40002  0.67434  0.32683  1.0000
  Au  Au20      1.0  0.46667  0.58973  0.44228  1.0000
  Au  Au21      1.0  0.23339  0.75895  0.26911  1.0000
  Au  Au22      1.0  0.23339  0.75895  0.38455  1.0000
  Au  Au23      1.0  0.33337  0.75895  0.32683  1.0000
  Au  Au24      1.0  0.26672  0.84355  0.32683  1.0000
  Au  Au25      1.0  0.30004  0.67434  0.38455  1.0000
  Au  Au26      1.0  0.30004  0.67434  0.50000  1.0000
  Au  Au27      1.0  0.40002  0.67434  0.44228  1.0000
  Au  Au28      1.0  0.33337  0.75895  0.44228  1.0000
  Au  Au29      1.0  0.36669  0.58973  0.50000  1.0000
  Au  Au30      1.0  0.36669  0.58973  0.61545  1.0000
  Au  Au31      1.0  0.46667  0.58973  0.55772  1.0000
  Au  Au32      1.0  0.40002  0.67434  0.55772  1.0000
  Au  Au33      1.0  0.46667  0.58973  0.67317  1.0000
  Au  Au34      1.0  0.26672  0.84355  0.44228  1.0000
  Au  Au35      1.0  0.23339  0.75895  0.50000  1.0000
  Au  Au36      1.0  0.23339  0.75895  0.61545  1.0000
  Au  Au37      1.0  0.33337  0.75895  0.55772  1.0000
  Au  Au38      1.0  0.26672  0.84355  0.55772  1.0000
  Au  Au39      1.0  0.30004  0.67434  0.61545  1.0000
  Au  Au40      1.0  0.30004  0.67434  0.73089  1.0000
  Au  Au41      1.0  0.40002  0.67434  0.67317  1.0000
  Au  Au42      1.0  0.33337  0.75895  0.67317  1.0000
  Au  Au43      1.0  0.36669  0.58973  0.73089  1.0000
  Au  Au44      1.0  0.46667  0.58973  0.78862  1.0000
  Au  Au45      1.0  0.40002  0.67434  0.78862  1.0000
  Au  Au46      1.0  0.26672  0.84355  0.67317  1.0000
  Au  Au47      1.0  0.23339  0.75895  0.73089  1.0000
  Au  Au48      1.0  0.33337  0.75895  0.78862  1.0000
  Au  Au49      1.0  0.50000  0.67434  0.15366  1.0000
  Au  Au50      1.0  0.56665  0.58973  0.15366  1.0000
  Au  Au51      1.0  0.56665  0.58973  0.26911  1.0000
  Au  Au52      1.0  0.66663  0.58973  0.21138  1.0000
  Au  Au53      1.0  0.59998  0.67434  0.21138  1.0000
  Au  Au54      1.0  0.66663  0.58973  0.32683  1.0000
  Au  Au55      1.0  0.43335  0.75895  0.15366  1.0000
  Au  Au56      1.0  0.43335  0.75895  0.26911  1.0000
  Au  Au57      1.0  0.53333  0.75895  0.21138  1.0000
  Au  Au58      1.0  0.46667  0.84355  0.21138  1.0000
  Au  Au59      1.0  0.50000  0.67434  0.26911  1.0000
  Au  Au60      1.0  0.50000  0.67434  0.38455  1.0000
  Au  Au61      1.0  0.59998  0.67434  0.32683  1.0000
  Au  Au62      1.0  0.53333  0.75895  0.32683  1.0000
  Au  Au63      1.0  0.56665  0.58973  0.38455  1.0000
  Au  Au64      1.0  0.56665  0.58973  0.50000  1.0000
  Au  Au65      1.0  0.66663  0.58973  0.44228  1.0000
  Au  Au66      1.0  0.59998  0.67434  0.44228  1.0000
  Au  Au67      1.0  0.66663  0.58973  0.55772  1.0000
  Au  Au68      1.0  0.36669  0.84355  0.26911  1.0000
  Au  Au69      1.0  0.36669  0.84355  0.38455  1.0000
  Au  Au70      1.0  0.46667  0.84355  0.32683  1.0000
  Au  Au71      1.0  0.40002  0.92816  0.32683  1.0000
  Au  Au72      1.0  0.43335  0.75895  0.38455  1.0000
  Au  Au73      1.0  0.43335  0.75895  0.50000  1.0000
  Au  Au74      1.0  0.53333  0.75895  0.44228  1.0000
  Au  Au75      1.0  0.46667  0.84355  0.44228  1.0000
  Au  Au76      1.0  0.50000  0.67434  0.50000  1.0000
  Au  Au77      1.0  0.50000  0.67434  0.61545  1.0000
  Au  Au78      1.0  0.59998  0.67434  0.55772  1.0000
  Au  Au79      1.0  0.53333  0.75895  0.55772  1.0000
  Au  Au80      1.0  0.56665  0.58973  0.61545  1.0000
  Au  Au81      1.0  0.56665  0.58973  0.73089  1.0000
  Au  Au82      1.0  0.66663  0.58973  0.67317  1.0000
  Au  Au83      1.0  0.59998  0.67434  0.67317  1.0000
  Au  Au84      1.0  0.66663  0.58973  0.78862  1.0000
  Au  Au85      1.0  0.30004  0.92816  0.38455  1.0000
  Au  Au86      1.0  0.30004  0.92816  0.50000  1.0000
  Au  Au87      1.0  0.40002  0.92816  0.44228  1.0000
  Au  Au88      1.0  0.36669  0.84355  0.50000  1.0000
  Au  Au89      1.0  0.36669  0.84355  0.61545  1.0000
  Au  Au90      1.0  0.46667  0.84355  0.55772  1.0000
  Au  Au91      1.0  0.40002  0.92816  0.55772  1.0000
  Au  Au92      1.0  0.43335  0.75895  0.61545  1.0000
  Au  Au93      1.0  0.43335  0.75895  0.73089  1.0000
  Au  Au94      1.0  0.53333  0.75895  0.67317  1.0000
  Au  Au95      1.0  0.46667  0.84355  0.67317  1.0000
  Au  Au96      1.0  0.50000  0.67434  0.73089  1.0000
  Au  Au97      1.0  0.50000  0.67434  0.84634  1.0000
  Au  Au98      1.0  0.59998  0.67434  0.78862  1.0000
  Au  Au99      1.0  0.53333  0.75895  0.78862  1.0000
  Au  Au100     1.0  0.56665  0.58973  0.84634  1.0000
  Au  Au101     1.0  0.30004  0.92816  0.61545  1.0000
  Au  Au102     1.0  0.40002  0.92816  0.67317  1.0000
  Au  Au103     1.0  0.36669  0.84355  0.73089  1.0000
  Au  Au104     1.0  0.46667  0.84355  0.78862  1.0000
  Au  Au105     1.0  0.43335  0.75895  0.84634  1.0000
  Au  Au106     1.0  0.69996  0.67434  0.26911  1.0000
  Au  Au107     1.0  0.76661  0.58973  0.26911  1.0000
  Au  Au108     1.0  0.76661  0.58973  0.38455  1.0000
  Au  Au109     1.0  0.79994  0.67434  0.32683  1.0000
  Au  Au110     1.0  0.56665  0.84355  0.26911  1.0000
  Au  Au111     1.0  0.63331  0.75895  0.26911  1.0000
  Au  Au112     1.0  0.63331  0.75895  0.38455  1.0000
  Au  Au113     1.0  0.73328  0.75895  0.32683  1.0000
  Au  Au114     1.0  0.66663  0.84355  0.32683  1.0000
  Au  Au115     1.0  0.69996  0.67434  0.38455  1.0000
  Au  Au116     1.0  0.69996  0.67434  0.50000  1.0000
  Au  Au117     1.0  0.79994  0.67434  0.44228  1.0000
  Au  Au118     1.0  0.73328  0.75895  0.44228  1.0000
  Au  Au119     1.0  0.76661  0.58973  0.50000  1.0000
  Au  Au120     1.0  0.76661  0.58973  0.61545  1.0000
  Au  Au121     1.0  0.79994  0.67434  0.55772  1.0000
  Au  Au122     1.0  0.50000  0.92816  0.26911  1.0000
  Au  Au123     1.0  0.50000  0.92816  0.38455  1.0000
  Au  Au124     1.0  0.59998  0.92816  0.32683  1.0000
  Au  Au125     1.0  0.56665  0.84355  0.38455  1.0000
  Au  Au126     1.0  0.56665  0.84355  0.50000  1.0000
  Au  Au127     1.0  0.66663  0.84355  0.44228  1.0000
  Au  Au128     1.0  0.59998  0.92816  0.44228  1.0000
  Au  Au129     1.0  0.63331  0.75895  0.50000  1.0000
  Au  Au130     1.0  0.63331  0.75895  0.61545  1.0000
  Au  Au131     1.0  0.73328  0.75895  0.55772  1.0000
  Au  Au132     1.0  0.66663  0.84355  0.55772  1.0000
  Au  Au133     1.0  0.69996  0.67434  0.61545  1.0000
  Au  Au134     1.0  0.69996  0.67434  0.73089  1.0000
  Au  Au135     1.0  0.79994  0.67434  0.67317  1.0000
  Au  Au136     1.0  0.73328  0.75895  0.67317  1.0000
  Au  Au137     1.0  0.76661  0.58973  0.73089  1.0000
  Au  Au138     1.0  0.50000  0.92816  0.50000  1.0000
  Au  Au139     1.0  0.50000  0.92816  0.61545  1.0000
  Au  Au140     1.0  0.59998  0.92816  0.55772  1.0000
  Au  Au141     1.0  0.56665  0.84355  0.61545  1.0000
  Au  Au142     1.0  0.56665  0.84355  0.73089  1.0000
  Au  Au143     1.0  0.66663  0.84355  0.67317  1.0000
  Au  Au144     1.0  0.59998  0.92816  0.67317  1.0000
  Au  Au145     1.0  0.63331  0.75895  0.73089  1.0000
  Au  Au146     1.0  0.50000  0.92816  0.73089  1.0000
  Au  Au147     1.0  0.76661  0.84355  0.38455  1.0000
  Au  Au148     1.0  0.83326  0.75895  0.38455  1.0000
  Au  Au149     1.0  0.83326  0.75895  0.50000  1.0000
  Au  Au150     1.0  0.69996  0.92816  0.38455  1.0000
  Au  Au151     1.0  0.69996  0.92816  0.50000  1.0000
  Au  Au152     1.0  0.76661  0.84355  0.50000  1.0000
  Au  Au153     1.0  0.76661  0.84355  0.61545  1.0000
  Au  Au154     1.0  0.83326  0.75895  0.61545  1.0000
  Au  Au155     1.0  0.69996  0.92816  0.61545  1.0000
